data_zeolite

_audit_creation_method RASPA-1.0
_audit_creation_date 2022-1-6
_audit_author_name ''

_cell_length_a    40.3056
_cell_length_b    40.3056
_cell_length_c    109.756
_cell_angle_alpha 90
_cell_angle_beta  90
_cell_angle_gamma 90
_cell_volume      178304

_symmetry_cell_setting          tetragonal
_symmetry_space_group_name_Hall 'P 1'
_symmetry_space_group_name_H-M  'P 1'
_symmetry_Int_Tables_number     1

_symmetry_equiv_pos_as_xyz 'x,y,z'

loop_
_atom_site_label
_atom_site_type_symbol
_atom_site_fract_x
_atom_site_fract_y
_atom_site_fract_z
_atom_site_charge
O        O      0.146950000000     0.051450000000     0.260400000000     0          
O        O      0.095950000000     0.039100000000     0.274800000000     0          
O        O      0.108700000000     0.000000000000     0.256200000000     0          
O        O      0.085950000000     0.059850000000     0.252200000000     0          
O        O      0.154950000000     0.039850000000     0.317200000000     0          
O        O      0.160150000000     0.061350000000     0.339800000000     0          
O        O      0.141850000000     0.000000000000     0.335500000000     0          
O        O      0.101200000000     0.049150000000     0.330400000000     0          
O        O      0.143300000000     0.123300000000     0.336700000000     0          
O        O      0.159900000000     0.186100000000     0.338700000000     0          
O        O      0.152650000000     0.159550000000     0.317100000000     0          
O        O      0.100050000000     0.169600000000     0.330900000000     0          
O        O      0.042800000000     0.062900000000     0.339700000000     0          
O        O      0.000000000000     0.107000000000     0.347800000000     0          
O        O      0.060400000000     0.104400000000     0.357000000000     0          
O        O      0.051500000000     0.126650000000     0.334900000000     0          
O        O      0.207650000000     0.061200000000     0.252500000000     0          
O        O      0.250000000000     0.101150000000     0.241700000000     0          
O        O      0.187400000000     0.099450000000     0.234500000000     0          
O        O      0.202950000000     0.125850000000     0.255600000000     0          
O        O      0.099100000000     0.122950000000     0.253800000000     0          
O        O      0.122800000000     0.088550000000     0.235400000000     0          
O        O      0.058350000000     0.101100000000     0.236700000000     0          
O        O      0.090600000000     0.187200000000     0.252900000000     0          
O        O      0.149500000000     0.162950000000     0.258500000000     0          
O        O      0.099700000000     0.158150000000     0.274000000000     0          
O        O      0.051450000000     0.250000000000     0.346700000000     0          
O        O      0.059550000000     0.194200000000     0.359200000000     0          
O        O      0.000000000000     0.214200000000     0.353200000000     0          
O        O      0.040500000000     0.191400000000     0.336400000000     0          
O        O      0.250000000000     0.195150000000     0.363900000000     0          
O        O      0.207850000000     0.210100000000     0.381300000000     0          
O        O      0.188450000000     0.210600000000     0.358400000000     0          
O        O      0.201550000000     0.153900000000     0.369200000000     0          
O        O      0.095700000000     0.203200000000     0.378600000000     0          
O        O      0.123250000000     0.206850000000     0.357000000000     0          
O        O      0.103350000000     0.148800000000     0.365400000000     0          
O        O      0.190550000000     0.250000000000     0.399000000000     0          
O        O      0.204700000000     0.186900000000     0.403600000000     0          
O        O      0.149900000000     0.202550000000     0.392000000000     0          
O        O      0.155750000000     0.250000000000     0.343800000000     0          
O        O      0.000000000000     0.187900000000     0.228200000000     0          
O        O      0.037650000000     0.206150000000     0.210000000000     0          
O        O      0.048350000000     0.148950000000     0.221000000000     0          
O        O      0.062000000000     0.205250000000     0.232300000000     0          
O        O      0.051000000000     0.163800000000     0.315200000000     0          
O        O      0.000000000000     0.055350000000     0.302000000000     0          
O        O      0.047800000000     0.040350000000     0.317300000000     0          
O        O      0.061650000000     0.054200000000     0.294300000000     0          
O        O      0.041800000000     0.101650000000     0.309100000000     0          
O        O      0.190750000000     0.055650000000     0.298000000000     0          
O        O      0.149800000000     0.099450000000     0.307700000000     0          
O        O      0.126350000000     0.047750000000     0.295800000000     0          
O        O      0.250000000000     0.050900000000     0.288300000000     0          
O        O      0.210700000000     0.100350000000     0.282100000000     0          
O        O      0.197350000000     0.039550000000     0.274800000000     0          
O        O      0.105400000000     0.250000000000     0.395100000000     0          
O        O      0.092100000000     0.188550000000     0.401800000000     0          
O        O      0.198950000000     0.250000000000     0.244700000000     0          
O        O      0.207650000000     0.191200000000     0.255000000000     0          
O        O      0.190200000000     0.194900000000     0.232000000000     0          
O        O      0.250000000000     0.213050000000     0.238600000000     0          
O        O      0.100850000000     0.098900000000     0.284100000000     0          
O        O      0.088150000000     0.250000000000     0.246700000000     0          
O        O      0.127000000000     0.209450000000     0.234600000000     0          
O        O      0.189150000000     0.100950000000     0.476900000000     0          
O        O      0.147250000000     0.125050000000     0.460700000000     0          
O        O      0.124500000000     0.092100000000     0.479600000000     0          
O        O      0.157300000000     0.060900000000     0.462300000000     0          
O        O      0.104300000000     0.125150000000     0.397900000000     0          
O        O      0.124850000000     0.154100000000     0.418000000000     0          
O        O      0.060950000000     0.142900000000     0.414600000000     0          
O        O      0.188100000000     0.107400000000     0.353200000000     0          
O        O      0.124800000000     0.092050000000     0.356500000000     0          
O        O      0.188450000000     0.138450000000     0.418600000000     0          
O        O      0.203000000000     0.124900000000     0.395800000000     0          
O        O      0.250000000000     0.144100000000     0.410900000000     0          
O        O      0.190850000000     0.143750000000     0.298500000000     0          
O        O      0.195450000000     0.161000000000     0.275600000000     0          
O        O      0.250000000000     0.149900000000     0.288200000000     0          
O        O      0.146950000000     0.250000000000     0.465100000000     0          
O        O      0.188550000000     0.213900000000     0.477700000000     0          
O        O      0.160250000000     0.188600000000     0.458300000000     0          
O        O      0.124550000000     0.199700000000     0.477900000000     0          
O        O      0.059700000000     0.102350000000     0.479300000000     0          
O        O      0.052300000000     0.125850000000     0.457100000000     0          
O        O      0.000000000000     0.107100000000     0.469700000000     0          
O        O      0.042000000000     0.062300000000     0.461500000000     0          
O        O      0.151650000000     0.099050000000     0.214400000000     0          
O        O      0.145050000000     0.147950000000     0.230000000000     0          
O        O      0.000000000000     0.106750000000     0.226200000000     0          
O        O      0.052050000000     0.087400000000     0.213400000000     0          
O        O      0.190900000000     0.155950000000     0.175300000000     0          
O        O      0.195500000000     0.140750000000     0.152100000000     0          
O        O      0.250000000000     0.148700000000     0.165100000000     0          
O        O      0.211600000000     0.096950000000     0.168900000000     0          
O        O      0.060250000000     0.094500000000     0.113900000000     0          
O        O      0.051450000000     0.151100000000     0.102300000000     0          
O        O      0.000000000000     0.114550000000     0.108500000000     0          
O        O      0.040350000000     0.093800000000     0.091300000000     0          
O        O      0.061500000000     0.141250000000     0.171300000000     0          
O        O      0.000000000000     0.145800000000     0.179000000000     0          
O        O      0.046500000000     0.124050000000     0.193800000000     0          
O        O      0.045350000000     0.187100000000     0.187300000000     0          
O        O      0.061100000000     0.145200000000     0.292700000000     0          
O        O      0.126050000000     0.150400000000     0.295600000000     0          
O        O      0.099600000000     0.205400000000     0.499900000000     0          
O        O      0.099750000000     0.147250000000     0.488800000000     0          
O        O      0.060050000000     0.195200000000     0.481400000000     0          
O        O      0.050500000000     0.162250000000     0.437200000000     0          
O        O      0.102250000000     0.165500000000     0.451600000000     0          
O        O      0.044800000000     0.191100000000     0.458300000000     0          
O        O      0.156700000000     0.127750000000     0.193000000000     0          
O        O      0.125750000000     0.151600000000     0.173800000000     0          
O        O      0.153450000000     0.192550000000     0.189400000000     0          
O        O      0.000000000000     0.145650000000     0.423200000000     0          
O        O      0.041500000000     0.100000000000     0.431200000000     0          
O        O      0.097600000000     0.158700000000     0.152500000000     0          
O        O      0.104000000000     0.098900000000     0.162000000000     0          
O        O      0.187650000000     0.086600000000     0.110200000000     0          
O        O      0.164250000000     0.145050000000     0.104800000000     0          
O        O      0.144900000000     0.092600000000     0.092200000000     0          
O        O      0.125400000000     0.099950000000     0.115000000000     0          
O        O      0.000000000000     0.210850000000     0.474200000000     0          
O        O      0.050150000000     0.250000000000     0.468800000000     0          
O        O      0.000000000000     0.147500000000     0.301400000000     0          
O        O      0.250000000000     0.193950000000     0.481700000000     0          
O        O      0.199750000000     0.156600000000     0.488600000000     0          
O        O      0.212550000000     0.212550000000     0.500000000000     0          
O        O      0.156000000000     0.042300000000     0.439400000000     0          
O        O      0.143500000000     0.096150000000     0.426600000000     0          
O        O      0.189450000000     0.054050000000     0.419300000000     0          
O        O      0.126300000000     0.037550000000     0.418100000000     0          
O        O      0.201350000000     0.124850000000     0.129000000000     0          
O        O      0.214250000000     0.060550000000     0.129900000000     0          
O        O      0.250000000000     0.099500000000     0.116100000000     0          
O        O      0.156150000000     0.150650000000     0.438900000000     0          
O        O      0.092500000000     0.064000000000     0.131200000000     0          
O        O      0.088000000000     0.129050000000     0.131500000000     0          
O        O      0.188950000000     0.153200000000     0.054900000000     0          
O        O      0.204350000000     0.158400000000     0.031900000000     0          
O        O      0.250000000000     0.140450000000     0.047800000000     0          
O        O      0.201250000000     0.099400000000     0.042200000000     0          
O        O      0.062200000000     0.103550000000     0.994700000000     0          
O        O      0.126200000000     0.105200000000     0.989400000000     0          
O        O      0.101100000000     0.059600000000     0.397500000000     0          
O        O      0.062750000000     0.052950000000     0.416600000000     0          
O        O      0.085750000000     0.000000000000     0.405500000000     0          
O        O      0.058900000000     0.145000000000     0.049400000000     0          
O        O      0.098000000000     0.100350000000     0.039100000000     0          
O        O      0.095100000000     0.161000000000     0.030500000000     0          
O        O      0.124050000000     0.149400000000     0.051600000000     0          
O        O      0.209850000000     0.250000000000     0.005900000000     0          
O        O      0.209200000000     0.185550000000     0.010400000000     0          
O        O      0.148850000000     0.190400000000     0.067800000000     0          
O        O      0.151700000000     0.126050000000     0.071800000000     0          
O        O      0.093300000000     0.093600000000     0.377400000000     0          
O        O      0.035900000000     0.124450000000     0.070400000000     0          
O        O      0.054400000000     0.186950000000     0.067800000000     0          
O        O      0.000000000000     0.164750000000     0.057200000000     0          
O        O      0.207550000000     0.091350000000     0.375400000000     0          
O        O      0.250000000000     0.117900000000     0.360000000000     0          
O        O      0.250000000000     0.116700000000     0.483700000000     0          
O        O      0.191200000000     0.095000000000     0.990700000000     0          
O        O      0.194250000000     0.122350000000     0.012300000000     0          
O        O      0.213300000000     0.061000000000     0.009500000000     0          
O        O      0.250000000000     0.108750000000     0.000400000000     0          
O        O      0.150600000000     0.168200000000     0.018600000000     0          
O        O      0.046300000000     0.059650000000     0.071100000000     0          
O        O      0.049550000000     0.000000000000     0.061400000000     0          
O        O      0.059950000000     0.052950000000     0.047900000000     0          
O        O      0.000000000000     0.039900000000     0.055800000000     0          
O        O      0.094100000000     0.042950000000     0.027800000000     0          
O        O      0.125150000000     0.046850000000     0.048800000000     0          
O        O      0.205150000000     0.059200000000     0.396200000000     0          
O        O      0.152100000000     0.090150000000     0.387800000000     0          
O        O      0.205200000000     0.250000000000     0.128000000000     0          
O        O      0.188350000000     0.202100000000     0.112900000000     0          
O        O      0.202450000000     0.187700000000     0.135500000000     0          
O        O      0.250000000000     0.206750000000     0.120700000000     0          
O        O      0.060850000000     0.000000000000     0.457600000000     0          
O        O      0.045650000000     0.038500000000     0.439200000000     0          
O        O      0.100100000000     0.049850000000     0.451600000000     0          
O        O      0.090700000000     0.090700000000     0.500000000000     0          
O        O      0.140050000000     0.000000000000     0.456600000000     0          
O        O      0.116400000000     0.000000000000     0.011700000000     0          
O        O      0.154600000000     0.049200000000     0.019300000000     0          
O        O      0.250000000000     0.060450000000     0.049300000000     0          
O        O      0.188150000000     0.045650000000     0.055000000000     0          
O        O      0.208850000000     0.040550000000     0.032300000000     0          
O        O      0.093700000000     0.101200000000     0.077700000000     0          
O        O      0.049500000000     0.058850000000     0.192000000000     0          
O        O      0.000000000000     0.046150000000     0.177000000000     0          
O        O      0.061600000000     0.052150000000     0.168800000000     0          
O        O      0.044600000000     0.000000000000     0.181800000000     0          
O        O      0.195100000000     0.000000000000     0.014300000000     0          
O        O      0.162000000000     0.198300000000     0.091100000000     0          
O        O      0.123600000000     0.193650000000     0.110300000000     0          
O        O      0.000000000000     0.188200000000     0.108100000000     0          
O        O      0.060650000000     0.209300000000     0.112800000000     0          
O        O      0.039050000000     0.205700000000     0.090100000000     0          
O        O      0.147950000000     0.250000000000     0.077400000000     0          
O        O      0.101050000000     0.206650000000     0.083000000000     0          
O        O      0.147300000000     0.000000000000     0.063300000000     0          
O        O      0.142600000000     0.061350000000     0.071200000000     0          
O        O      0.250000000000     0.044500000000     0.166600000000     0          
O        O      0.189500000000     0.038400000000     0.175800000000     0          
O        O      0.197250000000     0.051450000000     0.152600000000     0          
O        O      0.108150000000     0.039200000000     0.152700000000     0          
O        O      0.124500000000     0.048800000000     0.175400000000     0          
O        O      0.107150000000     0.250000000000     0.120800000000     0          
O        O      0.096550000000     0.193450000000     0.132100000000     0          
O        O      0.058600000000     0.250000000000     0.074100000000     0          
O        O      0.150900000000     0.194100000000     0.213100000000     0          
O        O      0.146850000000     0.153600000000     0.136800000000     0          
O        O      0.104800000000     0.000000000000     0.133800000000     0          
O        O      0.153350000000     0.043200000000     0.135300000000     0          
O        O      0.202350000000     0.000000000000     0.137900000000     0          
O        O      0.102700000000     0.093500000000     0.198500000000     0          
O        O      0.053100000000     0.250000000000     0.193300000000     0          
O        O      0.097150000000     0.205750000000     0.200300000000     0          
O        O      0.145800000000     0.250000000000     0.200600000000     0          
O        O      0.159150000000     0.062550000000     0.194900000000     0          
O        O      0.059900000000     0.000000000000     0.335400000000     0          
O        O      0.186000000000     0.000000000000     0.256300000000     0          
O        O      0.149750000000     0.000000000000     0.188400000000     0          
O        O      0.250000000000     0.039950000000     0.412100000000     0          
O        O      0.200700000000     0.000000000000     0.406400000000     0          
O        O      0.000000000000     0.054600000000     0.423200000000     0          
T        Si     0.109300000000     0.037850000000     0.261000000000     0          
T        Si     0.139600000000     0.037750000000     0.330600000000     0          
T        Si     0.138850000000     0.159700000000     0.330800000000     0          
T        Si     0.038650000000     0.100200000000     0.344800000000     0          
T        Si     0.211900000000     0.096950000000     0.246000000000     0          
T        Si     0.091500000000     0.093300000000     0.244400000000     0          
T        Si     0.110000000000     0.157750000000     0.259800000000     0          
T        Si     0.038200000000     0.212600000000     0.348800000000     0          
T        Si     0.211850000000     0.192500000000     0.368300000000     0          
T        Si     0.095650000000     0.188050000000     0.365100000000     0          
T        Si     0.188300000000     0.212350000000     0.394100000000     0          
T        Si     0.156850000000     0.213000000000     0.349400000000     0          
T        Si     0.037300000000     0.187100000000     0.222900000000     0          
T        Si     0.060850000000     0.162600000000     0.329400000000     0          
T        Si     0.038000000000     0.062850000000     0.305700000000     0          
T        Si     0.155450000000     0.060700000000     0.304700000000     0          
T        Si     0.212000000000     0.061600000000     0.285800000000     0          
T        Si     0.110850000000     0.211300000000     0.391800000000     0          
T        Si     0.211550000000     0.212350000000     0.242700000000     0          
T        Si     0.096200000000     0.060050000000     0.287200000000     0          
T        Si     0.091950000000     0.212600000000     0.241600000000     0          
T        Si     0.154450000000     0.094950000000     0.470000000000     0          
T        Si     0.095500000000     0.152500000000     0.408100000000     0          
T        Si     0.154150000000     0.096200000000     0.346700000000     0          
T        Si     0.211450000000     0.148600000000     0.407200000000     0          
T        Si     0.211900000000     0.138850000000     0.286200000000     0          
T        Si     0.155000000000     0.212850000000     0.469700000000     0          
T        Si     0.038600000000     0.099450000000     0.466900000000     0          
T        Si     0.151900000000     0.108650000000     0.228600000000     0          
T        Si     0.039450000000     0.110950000000     0.224300000000     0          
T        Si     0.212050000000     0.135750000000     0.165300000000     0          
T        Si     0.038050000000     0.113600000000     0.104000000000     0          
T        Si     0.038450000000     0.149500000000     0.182900000000     0          
T        Si     0.096850000000     0.138150000000     0.286600000000     0          
T        Si     0.096100000000     0.186800000000     0.487000000000     0          
T        Si     0.062450000000     0.161000000000     0.451100000000     0          
T        Si     0.156700000000     0.156750000000     0.182900000000     0          
T        Si     0.038250000000     0.137750000000     0.426500000000     0          
T        Si     0.097300000000     0.137600000000     0.164900000000     0          
T        Si     0.155150000000     0.106100000000     0.105400000000     0          
T        Si     0.038800000000     0.211900000000     0.470600000000     0          
T        Si     0.038300000000     0.139550000000     0.304500000000     0          
T        Si     0.212600000000     0.194300000000     0.487000000000     0          
T        Si     0.153850000000     0.057500000000     0.425800000000     0          
T        Si     0.213050000000     0.092950000000     0.121300000000     0          
T        Si     0.153350000000     0.134850000000     0.425500000000     0          
T        Si     0.091900000000     0.096950000000     0.122900000000     0          
T        Si     0.211300000000     0.137800000000     0.044200000000     0          
T        Si     0.099350000000     0.099350000000     0.000000000000     0          
T        Si     0.094100000000     0.037700000000     0.409400000000     0          
T        Si     0.094050000000     0.138950000000     0.042800000000     0          
T        Si     0.213400000000     0.213400000000     0.000000000000     0          
T        Si     0.153150000000     0.154550000000     0.061500000000     0          
T        Si     0.095250000000     0.109750000000     0.364000000000     0          
T        Si     0.037500000000     0.155500000000     0.061200000000     0          
T        Si     0.211800000000     0.117500000000     0.364400000000     0          
T        Si     0.211250000000     0.118400000000     0.487300000000     0          
T        Si     0.212350000000     0.097050000000     0.003100000000     0          
T        Si     0.189450000000     0.158450000000     0.018300000000     0          
T        Si     0.111300000000     0.161550000000     0.017200000000     0          
T        Si     0.038950000000     0.038150000000     0.059100000000     0          
T        Si     0.094350000000     0.060800000000     0.040900000000     0          
T        Si     0.192000000000     0.091400000000     0.388900000000     0          
T        Si     0.211500000000     0.211700000000     0.124300000000     0          
T        Si     0.062000000000     0.037650000000     0.452600000000     0          
T        Si     0.154950000000     0.138300000000     0.304700000000     0          
T        Si     0.093500000000     0.108050000000     0.486800000000     0          
T        Si     0.138400000000     0.038300000000     0.452400000000     0          
T        Si     0.117100000000     0.038350000000     0.015900000000     0          
T        Si     0.211950000000     0.061450000000     0.044700000000     0          
T        Si     0.054200000000     0.094700000000     0.077600000000     0          
T        Si     0.141350000000     0.157200000000     0.452300000000     0          
T        Si     0.038650000000     0.039250000000     0.179900000000     0          
T        Si     0.193000000000     0.037950000000     0.018900000000     0          
T        Si     0.159650000000     0.184850000000     0.104900000000     0          
T        Si     0.037900000000     0.188700000000     0.103400000000     0          
T        Si     0.139900000000     0.211350000000     0.079900000000     0          
T        Si     0.150800000000     0.038550000000     0.059600000000     0          
T        Si     0.133250000000     0.095200000000     0.078200000000     0          
T        Si     0.112650000000     0.092250000000     0.390200000000     0          
T        Si     0.212200000000     0.057700000000     0.166000000000     0          
T        Si     0.099350000000     0.059850000000     0.164800000000     0          
T        Si     0.096850000000     0.211600000000     0.119000000000     0          
T        Si     0.063100000000     0.212150000000     0.078700000000     0          
T        Si     0.153150000000     0.186500000000     0.227400000000     0          
T        Si     0.186600000000     0.151750000000     0.138400000000     0          
T        Si     0.114650000000     0.036900000000     0.138300000000     0          
T        Si     0.191850000000     0.038550000000     0.139000000000     0          
T        Si     0.062850000000     0.090750000000     0.199400000000     0          
T        Si     0.107350000000     0.158800000000     0.138300000000     0          
T        Si     0.058250000000     0.212150000000     0.197700000000     0          
T        Si     0.136800000000     0.211000000000     0.200800000000     0          
T        Si     0.142400000000     0.096000000000     0.200200000000     0          
T        Si     0.062700000000     0.037950000000     0.330800000000     0          
T        Si     0.184700000000     0.038000000000     0.261000000000     0          
T        Si     0.155650000000     0.037500000000     0.183600000000     0          
T        Si     0.188750000000     0.160150000000     0.261100000000     0          
T        Si     0.211250000000     0.038250000000     0.408400000000     0          
T        Si     0.037650000000     0.061400000000     0.427600000000     0          
O        O      0.051450000000     0.353050000000     0.739600000000     0          
O        O      0.039100000000     0.404050000000     0.725200000000     0          
O        O      0.000000000000     0.391300000000     0.743800000000     0          
O        O      0.059850000000     0.414050000000     0.747800000000     0          
O        O      0.039850000000     0.345050000000     0.682800000000     0          
O        O      0.061350000000     0.339850000000     0.660200000000     0          
O        O      0.000000000000     0.358150000000     0.664500000000     0          
O        O      0.049150000000     0.398800000000     0.669600000000     0          
O        O      0.123300000000     0.356700000000     0.663300000000     0          
O        O      0.186100000000     0.340100000000     0.661300000000     0          
O        O      0.159550000000     0.347350000000     0.682900000000     0          
O        O      0.169600000000     0.399950000000     0.669100000000     0          
O        O      0.062900000000     0.457200000000     0.660300000000     0          
O        O      0.107000000000     0.000000000000     0.652200000000     0          
O        O      0.104400000000     0.439600000000     0.643000000000     0          
O        O      0.126650000000     0.448500000000     0.665100000000     0          
O        O      0.061200000000     0.292350000000     0.747500000000     0          
O        O      0.101150000000     0.250000000000     0.758300000000     0          
O        O      0.099450000000     0.312600000000     0.765500000000     0          
O        O      0.125850000000     0.297050000000     0.744400000000     0          
O        O      0.122950000000     0.400900000000     0.746200000000     0          
O        O      0.088550000000     0.377200000000     0.764600000000     0          
O        O      0.101100000000     0.441650000000     0.763300000000     0          
O        O      0.187200000000     0.409400000000     0.747100000000     0          
O        O      0.162950000000     0.350500000000     0.741500000000     0          
O        O      0.158150000000     0.400300000000     0.726000000000     0          
O        O      0.250000000000     0.448550000000     0.653300000000     0          
O        O      0.194200000000     0.440450000000     0.640800000000     0          
O        O      0.214200000000     0.000000000000     0.646800000000     0          
O        O      0.191400000000     0.459500000000     0.663600000000     0          
O        O      0.195150000000     0.250000000000     0.636100000000     0          
O        O      0.210100000000     0.292150000000     0.618700000000     0          
O        O      0.210600000000     0.311550000000     0.641600000000     0          
O        O      0.153900000000     0.298450000000     0.630800000000     0          
O        O      0.203200000000     0.404300000000     0.621400000000     0          
O        O      0.206850000000     0.376750000000     0.643000000000     0          
O        O      0.148800000000     0.396650000000     0.634600000000     0          
O        O      0.250000000000     0.309450000000     0.601000000000     0          
O        O      0.186900000000     0.295300000000     0.596400000000     0          
O        O      0.202550000000     0.350100000000     0.608000000000     0          
O        O      0.250000000000     0.344250000000     0.656200000000     0          
O        O      0.187900000000     0.000000000000     0.771800000000     0          
O        O      0.206150000000     0.462350000000     0.790000000000     0          
O        O      0.148950000000     0.451650000000     0.779000000000     0          
O        O      0.205250000000     0.438000000000     0.767700000000     0          
O        O      0.163800000000     0.449000000000     0.684800000000     0          
O        O      0.055350000000     0.000000000000     0.698000000000     0          
O        O      0.040350000000     0.452200000000     0.682700000000     0          
O        O      0.054200000000     0.438350000000     0.705700000000     0          
O        O      0.101650000000     0.458200000000     0.690900000000     0          
O        O      0.055650000000     0.309250000000     0.702000000000     0          
O        O      0.099450000000     0.350200000000     0.692300000000     0          
O        O      0.047750000000     0.373650000000     0.704200000000     0          
O        O      0.050900000000     0.250000000000     0.711700000000     0          
O        O      0.100350000000     0.289300000000     0.717900000000     0          
O        O      0.039550000000     0.302650000000     0.725200000000     0          
O        O      0.250000000000     0.394600000000     0.604900000000     0          
O        O      0.188550000000     0.407900000000     0.598200000000     0          
O        O      0.250000000000     0.301050000000     0.755300000000     0          
O        O      0.191200000000     0.292350000000     0.745000000000     0          
O        O      0.194900000000     0.309800000000     0.768000000000     0          
O        O      0.213050000000     0.250000000000     0.761400000000     0          
O        O      0.098900000000     0.399150000000     0.715900000000     0          
O        O      0.250000000000     0.411850000000     0.753300000000     0          
O        O      0.209450000000     0.373000000000     0.765400000000     0          
O        O      0.100950000000     0.310850000000     0.523100000000     0          
O        O      0.125050000000     0.352750000000     0.539300000000     0          
O        O      0.092100000000     0.375500000000     0.520400000000     0          
O        O      0.060900000000     0.342700000000     0.537700000000     0          
O        O      0.125150000000     0.395700000000     0.602100000000     0          
O        O      0.154100000000     0.375150000000     0.582000000000     0          
O        O      0.142900000000     0.439050000000     0.585400000000     0          
O        O      0.107400000000     0.311900000000     0.646800000000     0          
O        O      0.092050000000     0.375200000000     0.643500000000     0          
O        O      0.138450000000     0.311550000000     0.581400000000     0          
O        O      0.124900000000     0.297000000000     0.604200000000     0          
O        O      0.144100000000     0.250000000000     0.589100000000     0          
O        O      0.143750000000     0.309150000000     0.701500000000     0          
O        O      0.161000000000     0.304550000000     0.724400000000     0          
O        O      0.149900000000     0.250000000000     0.711800000000     0          
O        O      0.250000000000     0.353050000000     0.534900000000     0          
O        O      0.213900000000     0.311450000000     0.522300000000     0          
O        O      0.188600000000     0.339750000000     0.541700000000     0          
O        O      0.199700000000     0.375450000000     0.522100000000     0          
O        O      0.102350000000     0.440300000000     0.520700000000     0          
O        O      0.125850000000     0.447700000000     0.542900000000     0          
O        O      0.107100000000     0.000000000000     0.530300000000     0          
O        O      0.062300000000     0.458000000000     0.538500000000     0          
O        O      0.099050000000     0.348350000000     0.785600000000     0          
O        O      0.147950000000     0.354950000000     0.770000000000     0          
O        O      0.106750000000     0.000000000000     0.773800000000     0          
O        O      0.087400000000     0.447950000000     0.786600000000     0          
O        O      0.155950000000     0.309100000000     0.824700000000     0          
O        O      0.140750000000     0.304500000000     0.847900000000     0          
O        O      0.148700000000     0.250000000000     0.834900000000     0          
O        O      0.096950000000     0.288400000000     0.831100000000     0          
O        O      0.094500000000     0.439750000000     0.886100000000     0          
O        O      0.151100000000     0.448550000000     0.897700000000     0          
O        O      0.114550000000     0.000000000000     0.891500000000     0          
O        O      0.093800000000     0.459650000000     0.908700000000     0          
O        O      0.141250000000     0.438500000000     0.828700000000     0          
O        O      0.145800000000     0.000000000000     0.821000000000     0          
O        O      0.124050000000     0.453500000000     0.806200000000     0          
O        O      0.187100000000     0.454650000000     0.812700000000     0          
O        O      0.145200000000     0.438900000000     0.707300000000     0          
O        O      0.150400000000     0.373950000000     0.704400000000     0          
O        O      0.205400000000     0.400400000000     0.500100000000     0          
O        O      0.147250000000     0.400250000000     0.511200000000     0          
O        O      0.195200000000     0.439950000000     0.518600000000     0          
O        O      0.162250000000     0.449500000000     0.562800000000     0          
O        O      0.165500000000     0.397750000000     0.548400000000     0          
O        O      0.191100000000     0.455200000000     0.541700000000     0          
O        O      0.127750000000     0.343300000000     0.807000000000     0          
O        O      0.151600000000     0.374250000000     0.826200000000     0          
O        O      0.192550000000     0.346550000000     0.810600000000     0          
O        O      0.145650000000     0.000000000000     0.576800000000     0          
O        O      0.100000000000     0.458500000000     0.568800000000     0          
O        O      0.158700000000     0.402400000000     0.847500000000     0          
O        O      0.098900000000     0.396000000000     0.838000000000     0          
O        O      0.086600000000     0.312350000000     0.889800000000     0          
O        O      0.145050000000     0.335750000000     0.895200000000     0          
O        O      0.092600000000     0.355100000000     0.907800000000     0          
O        O      0.099950000000     0.374600000000     0.885000000000     0          
O        O      0.210850000000     0.000000000000     0.525800000000     0          
O        O      0.250000000000     0.449850000000     0.531200000000     0          
O        O      0.147500000000     0.000000000000     0.698600000000     0          
O        O      0.193950000000     0.250000000000     0.518300000000     0          
O        O      0.156600000000     0.300250000000     0.511400000000     0          
O        O      0.212550000000     0.287450000000     0.500000000000     0          
O        O      0.042300000000     0.344000000000     0.560600000000     0          
O        O      0.096150000000     0.356500000000     0.573400000000     0          
O        O      0.054050000000     0.310550000000     0.580700000000     0          
O        O      0.037550000000     0.373700000000     0.581900000000     0          
O        O      0.124850000000     0.298650000000     0.871000000000     0          
O        O      0.060550000000     0.285750000000     0.870100000000     0          
O        O      0.099500000000     0.250000000000     0.883900000000     0          
O        O      0.150650000000     0.343850000000     0.561100000000     0          
O        O      0.064000000000     0.407500000000     0.868800000000     0          
O        O      0.129050000000     0.412000000000     0.868500000000     0          
O        O      0.153200000000     0.311050000000     0.945100000000     0          
O        O      0.158400000000     0.295650000000     0.968100000000     0          
O        O      0.140450000000     0.250000000000     0.952200000000     0          
O        O      0.099400000000     0.298750000000     0.957800000000     0          
O        O      0.103550000000     0.437800000000     0.005300000000     0          
O        O      0.105200000000     0.373800000000     0.010600000000     0          
O        O      0.059600000000     0.398900000000     0.602500000000     0          
O        O      0.052950000000     0.437250000000     0.583400000000     0          
O        O      0.000000000000     0.414250000000     0.594500000000     0          
O        O      0.145000000000     0.441100000000     0.950600000000     0          
O        O      0.100350000000     0.402000000000     0.960900000000     0          
O        O      0.161000000000     0.404900000000     0.969500000000     0          
O        O      0.149400000000     0.375950000000     0.948400000000     0          
O        O      0.250000000000     0.290150000000     0.994100000000     0          
O        O      0.185550000000     0.290800000000     0.989600000000     0          
O        O      0.190400000000     0.351150000000     0.932200000000     0          
O        O      0.126050000000     0.348300000000     0.928200000000     0          
O        O      0.093600000000     0.406700000000     0.622600000000     0          
O        O      0.124450000000     0.464100000000     0.929600000000     0          
O        O      0.186950000000     0.445600000000     0.932200000000     0          
O        O      0.164750000000     0.000000000000     0.942800000000     0          
O        O      0.091350000000     0.292450000000     0.624600000000     0          
O        O      0.117900000000     0.250000000000     0.640000000000     0          
O        O      0.116700000000     0.250000000000     0.516300000000     0          
O        O      0.095000000000     0.308800000000     0.009300000000     0          
O        O      0.122350000000     0.305750000000     0.987700000000     0          
O        O      0.061000000000     0.286700000000     0.990500000000     0          
O        O      0.108750000000     0.250000000000     0.999600000000     0          
O        O      0.168200000000     0.349400000000     0.981400000000     0          
O        O      0.059650000000     0.453700000000     0.928900000000     0          
O        O      0.000000000000     0.450450000000     0.938600000000     0          
O        O      0.052950000000     0.440050000000     0.952100000000     0          
O        O      0.039900000000     0.000000000000     0.944200000000     0          
O        O      0.042950000000     0.405900000000     0.972200000000     0          
O        O      0.046850000000     0.374850000000     0.951200000000     0          
O        O      0.059200000000     0.294850000000     0.603800000000     0          
O        O      0.090150000000     0.347900000000     0.612200000000     0          
O        O      0.250000000000     0.294800000000     0.872000000000     0          
O        O      0.202100000000     0.311650000000     0.887100000000     0          
O        O      0.187700000000     0.297550000000     0.864500000000     0          
O        O      0.206750000000     0.250000000000     0.879300000000     0          
O        O      0.000000000000     0.439150000000     0.542400000000     0          
O        O      0.038500000000     0.454350000000     0.560800000000     0          
O        O      0.049850000000     0.399900000000     0.548400000000     0          
O        O      0.090700000000     0.409300000000     0.500000000000     0          
O        O      0.000000000000     0.359950000000     0.543400000000     0          
O        O      0.000000000000     0.383600000000     0.988300000000     0          
O        O      0.049200000000     0.345400000000     0.980700000000     0          
O        O      0.060450000000     0.250000000000     0.950700000000     0          
O        O      0.045650000000     0.311850000000     0.945000000000     0          
O        O      0.040550000000     0.291150000000     0.967700000000     0          
O        O      0.101200000000     0.406300000000     0.922300000000     0          
O        O      0.058850000000     0.450500000000     0.808000000000     0          
O        O      0.046150000000     0.000000000000     0.823000000000     0          
O        O      0.052150000000     0.438400000000     0.831200000000     0          
O        O      0.000000000000     0.455400000000     0.818200000000     0          
O        O      0.000000000000     0.304900000000     0.985700000000     0          
O        O      0.198300000000     0.338000000000     0.908900000000     0          
O        O      0.193650000000     0.376400000000     0.889700000000     0          
O        O      0.188200000000     0.000000000000     0.891900000000     0          
O        O      0.209300000000     0.439350000000     0.887200000000     0          
O        O      0.205700000000     0.460950000000     0.909900000000     0          
O        O      0.250000000000     0.352050000000     0.922600000000     0          
O        O      0.206650000000     0.398950000000     0.917000000000     0          
O        O      0.000000000000     0.352700000000     0.936700000000     0          
O        O      0.061350000000     0.357400000000     0.928800000000     0          
O        O      0.044500000000     0.250000000000     0.833400000000     0          
O        O      0.038400000000     0.310500000000     0.824200000000     0          
O        O      0.051450000000     0.302750000000     0.847400000000     0          
O        O      0.039200000000     0.391850000000     0.847300000000     0          
O        O      0.048800000000     0.375500000000     0.824600000000     0          
O        O      0.250000000000     0.392850000000     0.879200000000     0          
O        O      0.193450000000     0.403450000000     0.867900000000     0          
O        O      0.250000000000     0.441400000000     0.925900000000     0          
O        O      0.194100000000     0.349100000000     0.786900000000     0          
O        O      0.153600000000     0.353150000000     0.863200000000     0          
O        O      0.000000000000     0.395200000000     0.866200000000     0          
O        O      0.043200000000     0.346650000000     0.864700000000     0          
O        O      0.000000000000     0.297650000000     0.862100000000     0          
O        O      0.093500000000     0.397300000000     0.801500000000     0          
O        O      0.250000000000     0.446900000000     0.806700000000     0          
O        O      0.205750000000     0.402850000000     0.799700000000     0          
O        O      0.250000000000     0.354200000000     0.799400000000     0          
O        O      0.062550000000     0.340850000000     0.805100000000     0          
O        O      0.000000000000     0.440100000000     0.664600000000     0          
O        O      0.000000000000     0.314000000000     0.743700000000     0          
O        O      0.000000000000     0.350250000000     0.811600000000     0          
O        O      0.039950000000     0.250000000000     0.587900000000     0          
O        O      0.000000000000     0.299300000000     0.593600000000     0          
O        O      0.054600000000     0.000000000000     0.576800000000     0          
T        Si     0.037850000000     0.390700000000     0.739000000000     0          
T        Si     0.037750000000     0.360400000000     0.669400000000     0          
T        Si     0.159700000000     0.361150000000     0.669200000000     0          
T        Si     0.100200000000     0.461350000000     0.655200000000     0          
T        Si     0.096950000000     0.288100000000     0.754000000000     0          
T        Si     0.093300000000     0.408500000000     0.755600000000     0          
T        Si     0.157750000000     0.390000000000     0.740200000000     0          
T        Si     0.212600000000     0.461800000000     0.651200000000     0          
T        Si     0.192500000000     0.288150000000     0.631700000000     0          
T        Si     0.188050000000     0.404350000000     0.634900000000     0          
T        Si     0.212350000000     0.311700000000     0.605900000000     0          
T        Si     0.213000000000     0.343150000000     0.650600000000     0          
T        Si     0.187100000000     0.462700000000     0.777100000000     0          
T        Si     0.162600000000     0.439150000000     0.670600000000     0          
T        Si     0.062850000000     0.462000000000     0.694300000000     0          
T        Si     0.060700000000     0.344550000000     0.695300000000     0          
T        Si     0.061600000000     0.288000000000     0.714200000000     0          
T        Si     0.211300000000     0.389150000000     0.608200000000     0          
T        Si     0.212350000000     0.288450000000     0.757300000000     0          
T        Si     0.060050000000     0.403800000000     0.712800000000     0          
T        Si     0.212600000000     0.408050000000     0.758400000000     0          
T        Si     0.094950000000     0.345550000000     0.530000000000     0          
T        Si     0.152500000000     0.404500000000     0.591900000000     0          
T        Si     0.096200000000     0.345850000000     0.653300000000     0          
T        Si     0.148600000000     0.288550000000     0.592800000000     0          
T        Si     0.138850000000     0.288100000000     0.713800000000     0          
T        Si     0.212850000000     0.345000000000     0.530300000000     0          
T        Si     0.099450000000     0.461400000000     0.533100000000     0          
T        Si     0.108650000000     0.348100000000     0.771400000000     0          
T        Si     0.110950000000     0.460550000000     0.775700000000     0          
T        Si     0.135750000000     0.287950000000     0.834700000000     0          
T        Si     0.113600000000     0.461950000000     0.896000000000     0          
T        Si     0.149500000000     0.461550000000     0.817100000000     0          
T        Si     0.138150000000     0.403150000000     0.713400000000     0          
T        Si     0.186800000000     0.403900000000     0.513000000000     0          
T        Si     0.161000000000     0.437550000000     0.548900000000     0          
T        Si     0.156750000000     0.343300000000     0.817100000000     0          
T        Si     0.137750000000     0.461750000000     0.573500000000     0          
T        Si     0.137600000000     0.402700000000     0.835100000000     0          
T        Si     0.106100000000     0.344850000000     0.894600000000     0          
T        Si     0.211900000000     0.461200000000     0.529400000000     0          
T        Si     0.139550000000     0.461700000000     0.695500000000     0          
T        Si     0.194300000000     0.287400000000     0.513000000000     0          
T        Si     0.057500000000     0.346150000000     0.574200000000     0          
T        Si     0.092950000000     0.286950000000     0.878700000000     0          
T        Si     0.134850000000     0.346650000000     0.574500000000     0          
T        Si     0.096950000000     0.408100000000     0.877100000000     0          
T        Si     0.137800000000     0.288700000000     0.955800000000     0          
T        Si     0.099350000000     0.400650000000     0.000000000000     0          
T        Si     0.037700000000     0.405900000000     0.590600000000     0          
T        Si     0.138950000000     0.405950000000     0.957200000000     0          
T        Si     0.213400000000     0.286600000000     0.000000000000     0          
T        Si     0.154550000000     0.346850000000     0.938500000000     0          
T        Si     0.109750000000     0.404750000000     0.636000000000     0          
T        Si     0.155500000000     0.462500000000     0.938800000000     0          
T        Si     0.117500000000     0.288200000000     0.635600000000     0          
T        Si     0.118400000000     0.288750000000     0.512700000000     0          
T        Si     0.097050000000     0.287650000000     0.996900000000     0          
T        Si     0.158450000000     0.310550000000     0.981700000000     0          
T        Si     0.161550000000     0.388700000000     0.982800000000     0          
T        Si     0.038150000000     0.461050000000     0.940900000000     0          
T        Si     0.060800000000     0.405650000000     0.959100000000     0          
T        Si     0.091400000000     0.308000000000     0.611100000000     0          
T        Si     0.211700000000     0.288500000000     0.875700000000     0          
T        Si     0.037650000000     0.438000000000     0.547400000000     0          
T        Si     0.138300000000     0.345050000000     0.695300000000     0          
T        Si     0.108050000000     0.406500000000     0.513200000000     0          
T        Si     0.038300000000     0.361600000000     0.547600000000     0          
T        Si     0.038350000000     0.382900000000     0.984100000000     0          
T        Si     0.061450000000     0.288050000000     0.955300000000     0          
T        Si     0.094700000000     0.445800000000     0.922400000000     0          
T        Si     0.157200000000     0.358650000000     0.547700000000     0          
T        Si     0.039250000000     0.461350000000     0.820100000000     0          
T        Si     0.037950000000     0.307000000000     0.981100000000     0          
T        Si     0.184850000000     0.340350000000     0.895100000000     0          
T        Si     0.188700000000     0.462100000000     0.896600000000     0          
T        Si     0.211350000000     0.360100000000     0.920100000000     0          
T        Si     0.038550000000     0.349200000000     0.940400000000     0          
T        Si     0.095200000000     0.366750000000     0.921800000000     0          
T        Si     0.092250000000     0.387350000000     0.609800000000     0          
T        Si     0.057700000000     0.287800000000     0.834000000000     0          
T        Si     0.059850000000     0.400650000000     0.835200000000     0          
T        Si     0.211600000000     0.403150000000     0.881000000000     0          
T        Si     0.212150000000     0.436900000000     0.921300000000     0          
T        Si     0.186500000000     0.346850000000     0.772600000000     0          
T        Si     0.151750000000     0.313400000000     0.861600000000     0          
T        Si     0.036900000000     0.385350000000     0.861700000000     0          
T        Si     0.038550000000     0.308150000000     0.861000000000     0          
T        Si     0.090750000000     0.437150000000     0.800600000000     0          
T        Si     0.158800000000     0.392650000000     0.861700000000     0          
T        Si     0.212150000000     0.441750000000     0.802300000000     0          
T        Si     0.211000000000     0.363200000000     0.799200000000     0          
T        Si     0.096000000000     0.357600000000     0.799800000000     0          
T        Si     0.037950000000     0.437300000000     0.669200000000     0          
T        Si     0.038000000000     0.315300000000     0.739000000000     0          
T        Si     0.037500000000     0.344350000000     0.816400000000     0          
T        Si     0.160150000000     0.311250000000     0.738900000000     0          
T        Si     0.038250000000     0.288750000000     0.591600000000     0          
T        Si     0.061400000000     0.462350000000     0.572400000000     0          
O        O      0.353050000000     0.448550000000     0.260400000000     0          
O        O      0.404050000000     0.460900000000     0.274800000000     0          
O        O      0.391300000000     0.000000000000     0.256200000000     0          
O        O      0.414050000000     0.440150000000     0.252200000000     0          
O        O      0.345050000000     0.460150000000     0.317200000000     0          
O        O      0.339850000000     0.438650000000     0.339800000000     0          
O        O      0.358150000000     0.000000000000     0.335500000000     0          
O        O      0.398800000000     0.450850000000     0.330400000000     0          
O        O      0.356700000000     0.376700000000     0.336700000000     0          
O        O      0.340100000000     0.313900000000     0.338700000000     0          
O        O      0.347350000000     0.340450000000     0.317100000000     0          
O        O      0.399950000000     0.330400000000     0.330900000000     0          
O        O      0.457200000000     0.437100000000     0.339700000000     0          
O        O      0.000000000000     0.393000000000     0.347800000000     0          
O        O      0.439600000000     0.395600000000     0.357000000000     0          
O        O      0.448500000000     0.373350000000     0.334900000000     0          
O        O      0.292350000000     0.438800000000     0.252500000000     0          
O        O      0.250000000000     0.398850000000     0.241700000000     0          
O        O      0.312600000000     0.400550000000     0.234500000000     0          
O        O      0.297050000000     0.374150000000     0.255600000000     0          
O        O      0.400900000000     0.377050000000     0.253800000000     0          
O        O      0.377200000000     0.411450000000     0.235400000000     0          
O        O      0.441650000000     0.398900000000     0.236700000000     0          
O        O      0.409400000000     0.312800000000     0.252900000000     0          
O        O      0.350500000000     0.337050000000     0.258500000000     0          
O        O      0.400300000000     0.341850000000     0.274000000000     0          
O        O      0.448550000000     0.250000000000     0.346700000000     0          
O        O      0.440450000000     0.305800000000     0.359200000000     0          
O        O      0.000000000000     0.285800000000     0.353200000000     0          
O        O      0.459500000000     0.308600000000     0.336400000000     0          
O        O      0.250000000000     0.304850000000     0.363900000000     0          
O        O      0.292150000000     0.289900000000     0.381300000000     0          
O        O      0.311550000000     0.289400000000     0.358400000000     0          
O        O      0.298450000000     0.346100000000     0.369200000000     0          
O        O      0.404300000000     0.296800000000     0.378600000000     0          
O        O      0.376750000000     0.293150000000     0.357000000000     0          
O        O      0.396650000000     0.351200000000     0.365400000000     0          
O        O      0.309450000000     0.250000000000     0.399000000000     0          
O        O      0.295300000000     0.313100000000     0.403600000000     0          
O        O      0.350100000000     0.297450000000     0.392000000000     0          
O        O      0.344250000000     0.250000000000     0.343800000000     0          
O        O      0.000000000000     0.312100000000     0.228200000000     0          
O        O      0.462350000000     0.293850000000     0.210000000000     0          
O        O      0.451650000000     0.351050000000     0.221000000000     0          
O        O      0.438000000000     0.294750000000     0.232300000000     0          
O        O      0.449000000000     0.336200000000     0.315200000000     0          
O        O      0.000000000000     0.444650000000     0.302000000000     0          
O        O      0.452200000000     0.459650000000     0.317300000000     0          
O        O      0.438350000000     0.445800000000     0.294300000000     0          
O        O      0.458200000000     0.398350000000     0.309100000000     0          
O        O      0.309250000000     0.444350000000     0.298000000000     0          
O        O      0.350200000000     0.400550000000     0.307700000000     0          
O        O      0.373650000000     0.452250000000     0.295800000000     0          
O        O      0.250000000000     0.449100000000     0.288300000000     0          
O        O      0.289300000000     0.399650000000     0.282100000000     0          
O        O      0.302650000000     0.460450000000     0.274800000000     0          
O        O      0.394600000000     0.250000000000     0.395100000000     0          
O        O      0.407900000000     0.311450000000     0.401800000000     0          
O        O      0.301050000000     0.250000000000     0.244700000000     0          
O        O      0.292350000000     0.308800000000     0.255000000000     0          
O        O      0.309800000000     0.305100000000     0.232000000000     0          
O        O      0.250000000000     0.286950000000     0.238600000000     0          
O        O      0.399150000000     0.401100000000     0.284100000000     0          
O        O      0.411850000000     0.250000000000     0.246700000000     0          
O        O      0.373000000000     0.290550000000     0.234600000000     0          
O        O      0.310850000000     0.399050000000     0.476900000000     0          
O        O      0.352750000000     0.374950000000     0.460700000000     0          
O        O      0.375500000000     0.407900000000     0.479600000000     0          
O        O      0.342700000000     0.439100000000     0.462300000000     0          
O        O      0.395700000000     0.374850000000     0.397900000000     0          
O        O      0.375150000000     0.345900000000     0.418000000000     0          
O        O      0.439050000000     0.357100000000     0.414600000000     0          
O        O      0.311900000000     0.392600000000     0.353200000000     0          
O        O      0.375200000000     0.407950000000     0.356500000000     0          
O        O      0.311550000000     0.361550000000     0.418600000000     0          
O        O      0.297000000000     0.375100000000     0.395800000000     0          
O        O      0.250000000000     0.355900000000     0.410900000000     0          
O        O      0.309150000000     0.356250000000     0.298500000000     0          
O        O      0.304550000000     0.339000000000     0.275600000000     0          
O        O      0.250000000000     0.350100000000     0.288200000000     0          
O        O      0.353050000000     0.250000000000     0.465100000000     0          
O        O      0.311450000000     0.286100000000     0.477700000000     0          
O        O      0.339750000000     0.311400000000     0.458300000000     0          
O        O      0.375450000000     0.300300000000     0.477900000000     0          
O        O      0.440300000000     0.397650000000     0.479300000000     0          
O        O      0.447700000000     0.374150000000     0.457100000000     0          
O        O      0.000000000000     0.392900000000     0.469700000000     0          
O        O      0.458000000000     0.437700000000     0.461500000000     0          
O        O      0.348350000000     0.400950000000     0.214400000000     0          
O        O      0.354950000000     0.352050000000     0.230000000000     0          
O        O      0.000000000000     0.393250000000     0.226200000000     0          
O        O      0.447950000000     0.412600000000     0.213400000000     0          
O        O      0.309100000000     0.344050000000     0.175300000000     0          
O        O      0.304500000000     0.359250000000     0.152100000000     0          
O        O      0.250000000000     0.351300000000     0.165100000000     0          
O        O      0.288400000000     0.403050000000     0.168900000000     0          
O        O      0.439750000000     0.405500000000     0.113900000000     0          
O        O      0.448550000000     0.348900000000     0.102300000000     0          
O        O      0.000000000000     0.385450000000     0.108500000000     0          
O        O      0.459650000000     0.406200000000     0.091300000000     0          
O        O      0.438500000000     0.358750000000     0.171300000000     0          
O        O      0.000000000000     0.354200000000     0.179000000000     0          
O        O      0.453500000000     0.375950000000     0.193800000000     0          
O        O      0.454650000000     0.312900000000     0.187300000000     0          
O        O      0.438900000000     0.354800000000     0.292700000000     0          
O        O      0.373950000000     0.349600000000     0.295600000000     0          
O        O      0.400400000000     0.294600000000     0.499900000000     0          
O        O      0.400250000000     0.352750000000     0.488800000000     0          
O        O      0.439950000000     0.304800000000     0.481400000000     0          
O        O      0.449500000000     0.337750000000     0.437200000000     0          
O        O      0.397750000000     0.334500000000     0.451600000000     0          
O        O      0.455200000000     0.308900000000     0.458300000000     0          
O        O      0.343300000000     0.372250000000     0.193000000000     0          
O        O      0.374250000000     0.348400000000     0.173800000000     0          
O        O      0.346550000000     0.307450000000     0.189400000000     0          
O        O      0.000000000000     0.354350000000     0.423200000000     0          
O        O      0.458500000000     0.400000000000     0.431200000000     0          
O        O      0.402400000000     0.341300000000     0.152500000000     0          
O        O      0.396000000000     0.401100000000     0.162000000000     0          
O        O      0.312350000000     0.413400000000     0.110200000000     0          
O        O      0.335750000000     0.354950000000     0.104800000000     0          
O        O      0.355100000000     0.407400000000     0.092200000000     0          
O        O      0.374600000000     0.400050000000     0.115000000000     0          
O        O      0.000000000000     0.289150000000     0.474200000000     0          
O        O      0.449850000000     0.250000000000     0.468800000000     0          
O        O      0.000000000000     0.352500000000     0.301400000000     0          
O        O      0.250000000000     0.306050000000     0.481700000000     0          
O        O      0.300250000000     0.343400000000     0.488600000000     0          
O        O      0.287450000000     0.287450000000     0.500000000000     0          
O        O      0.344000000000     0.457700000000     0.439400000000     0          
O        O      0.356500000000     0.403850000000     0.426600000000     0          
O        O      0.310550000000     0.445950000000     0.419300000000     0          
O        O      0.373700000000     0.462450000000     0.418100000000     0          
O        O      0.298650000000     0.375150000000     0.129000000000     0          
O        O      0.285750000000     0.439450000000     0.129900000000     0          
O        O      0.250000000000     0.400500000000     0.116100000000     0          
O        O      0.343850000000     0.349350000000     0.438900000000     0          
O        O      0.407500000000     0.436000000000     0.131200000000     0          
O        O      0.412000000000     0.370950000000     0.131500000000     0          
O        O      0.311050000000     0.346800000000     0.054900000000     0          
O        O      0.295650000000     0.341600000000     0.031900000000     0          
O        O      0.250000000000     0.359550000000     0.047800000000     0          
O        O      0.298750000000     0.400600000000     0.042200000000     0          
O        O      0.437800000000     0.396450000000     0.994700000000     0          
O        O      0.373800000000     0.394800000000     0.989400000000     0          
O        O      0.398900000000     0.440400000000     0.397500000000     0          
O        O      0.437250000000     0.447050000000     0.416600000000     0          
O        O      0.414250000000     0.000000000000     0.405500000000     0          
O        O      0.441100000000     0.355000000000     0.049400000000     0          
O        O      0.402000000000     0.399650000000     0.039100000000     0          
O        O      0.404900000000     0.339000000000     0.030500000000     0          
O        O      0.375950000000     0.350600000000     0.051600000000     0          
O        O      0.290150000000     0.250000000000     0.005900000000     0          
O        O      0.290800000000     0.314450000000     0.010400000000     0          
O        O      0.351150000000     0.309600000000     0.067800000000     0          
O        O      0.348300000000     0.373950000000     0.071800000000     0          
O        O      0.406700000000     0.406400000000     0.377400000000     0          
O        O      0.464100000000     0.375550000000     0.070400000000     0          
O        O      0.445600000000     0.313050000000     0.067800000000     0          
O        O      0.000000000000     0.335250000000     0.057200000000     0          
O        O      0.292450000000     0.408650000000     0.375400000000     0          
O        O      0.250000000000     0.382100000000     0.360000000000     0          
O        O      0.250000000000     0.383300000000     0.483700000000     0          
O        O      0.308800000000     0.405000000000     0.990700000000     0          
O        O      0.305750000000     0.377650000000     0.012300000000     0          
O        O      0.286700000000     0.439000000000     0.009500000000     0          
O        O      0.250000000000     0.391250000000     0.000400000000     0          
O        O      0.349400000000     0.331800000000     0.018600000000     0          
O        O      0.453700000000     0.440350000000     0.071100000000     0          
O        O      0.450450000000     0.000000000000     0.061400000000     0          
O        O      0.440050000000     0.447050000000     0.047900000000     0          
O        O      0.000000000000     0.460100000000     0.055800000000     0          
O        O      0.405900000000     0.457050000000     0.027800000000     0          
O        O      0.374850000000     0.453150000000     0.048800000000     0          
O        O      0.294850000000     0.440800000000     0.396200000000     0          
O        O      0.347900000000     0.409850000000     0.387800000000     0          
O        O      0.294800000000     0.250000000000     0.128000000000     0          
O        O      0.311650000000     0.297900000000     0.112900000000     0          
O        O      0.297550000000     0.312300000000     0.135500000000     0          
O        O      0.250000000000     0.293250000000     0.120700000000     0          
O        O      0.439150000000     0.000000000000     0.457600000000     0          
O        O      0.454350000000     0.461500000000     0.439200000000     0          
O        O      0.399900000000     0.450150000000     0.451600000000     0          
O        O      0.409300000000     0.409300000000     0.500000000000     0          
O        O      0.359950000000     0.000000000000     0.456600000000     0          
O        O      0.383600000000     0.000000000000     0.011700000000     0          
O        O      0.345400000000     0.450800000000     0.019300000000     0          
O        O      0.250000000000     0.439550000000     0.049300000000     0          
O        O      0.311850000000     0.454350000000     0.055000000000     0          
O        O      0.291150000000     0.459450000000     0.032300000000     0          
O        O      0.406300000000     0.398800000000     0.077700000000     0          
O        O      0.450500000000     0.441150000000     0.192000000000     0          
O        O      0.000000000000     0.453850000000     0.177000000000     0          
O        O      0.438400000000     0.447850000000     0.168800000000     0          
O        O      0.455400000000     0.000000000000     0.181800000000     0          
O        O      0.304900000000     0.000000000000     0.014300000000     0          
O        O      0.338000000000     0.301700000000     0.091100000000     0          
O        O      0.376400000000     0.306350000000     0.110300000000     0          
O        O      0.000000000000     0.311800000000     0.108100000000     0          
O        O      0.439350000000     0.290700000000     0.112800000000     0          
O        O      0.460950000000     0.294300000000     0.090100000000     0          
O        O      0.352050000000     0.250000000000     0.077400000000     0          
O        O      0.398950000000     0.293350000000     0.083000000000     0          
O        O      0.352700000000     0.000000000000     0.063300000000     0          
O        O      0.357400000000     0.438650000000     0.071200000000     0          
O        O      0.250000000000     0.455500000000     0.166600000000     0          
O        O      0.310500000000     0.461600000000     0.175800000000     0          
O        O      0.302750000000     0.448550000000     0.152600000000     0          
O        O      0.391850000000     0.460800000000     0.152700000000     0          
O        O      0.375500000000     0.451200000000     0.175400000000     0          
O        O      0.392850000000     0.250000000000     0.120800000000     0          
O        O      0.403450000000     0.306550000000     0.132100000000     0          
O        O      0.441400000000     0.250000000000     0.074100000000     0          
O        O      0.349100000000     0.305900000000     0.213100000000     0          
O        O      0.353150000000     0.346400000000     0.136800000000     0          
O        O      0.395200000000     0.000000000000     0.133800000000     0          
O        O      0.346650000000     0.456800000000     0.135300000000     0          
O        O      0.297650000000     0.000000000000     0.137900000000     0          
O        O      0.397300000000     0.406500000000     0.198500000000     0          
O        O      0.446900000000     0.250000000000     0.193300000000     0          
O        O      0.402850000000     0.294250000000     0.200300000000     0          
O        O      0.354200000000     0.250000000000     0.200600000000     0          
O        O      0.340850000000     0.437450000000     0.194900000000     0          
O        O      0.440100000000     0.000000000000     0.335400000000     0          
O        O      0.314000000000     0.000000000000     0.256300000000     0          
O        O      0.350250000000     0.000000000000     0.188400000000     0          
O        O      0.250000000000     0.460050000000     0.412100000000     0          
O        O      0.299300000000     0.000000000000     0.406400000000     0          
O        O      0.000000000000     0.445400000000     0.423200000000     0          
T        Si     0.390700000000     0.462150000000     0.261000000000     0          
T        Si     0.360400000000     0.462250000000     0.330600000000     0          
T        Si     0.361150000000     0.340300000000     0.330800000000     0          
T        Si     0.461350000000     0.399800000000     0.344800000000     0          
T        Si     0.288100000000     0.403050000000     0.246000000000     0          
T        Si     0.408500000000     0.406700000000     0.244400000000     0          
T        Si     0.390000000000     0.342250000000     0.259800000000     0          
T        Si     0.461800000000     0.287400000000     0.348800000000     0          
T        Si     0.288150000000     0.307500000000     0.368300000000     0          
T        Si     0.404350000000     0.311950000000     0.365100000000     0          
T        Si     0.311700000000     0.287650000000     0.394100000000     0          
T        Si     0.343150000000     0.287000000000     0.349400000000     0          
T        Si     0.462700000000     0.312900000000     0.222900000000     0          
T        Si     0.439150000000     0.337400000000     0.329400000000     0          
T        Si     0.462000000000     0.437150000000     0.305700000000     0          
T        Si     0.344550000000     0.439300000000     0.304700000000     0          
T        Si     0.288000000000     0.438400000000     0.285800000000     0          
T        Si     0.389150000000     0.288700000000     0.391800000000     0          
T        Si     0.288450000000     0.287650000000     0.242700000000     0          
T        Si     0.403800000000     0.439950000000     0.287200000000     0          
T        Si     0.408050000000     0.287400000000     0.241600000000     0          
T        Si     0.345550000000     0.405050000000     0.470000000000     0          
T        Si     0.404500000000     0.347500000000     0.408100000000     0          
T        Si     0.345850000000     0.403800000000     0.346700000000     0          
T        Si     0.288550000000     0.351400000000     0.407200000000     0          
T        Si     0.288100000000     0.361150000000     0.286200000000     0          
T        Si     0.345000000000     0.287150000000     0.469700000000     0          
T        Si     0.461400000000     0.400550000000     0.466900000000     0          
T        Si     0.348100000000     0.391350000000     0.228600000000     0          
T        Si     0.460550000000     0.389050000000     0.224300000000     0          
T        Si     0.287950000000     0.364250000000     0.165300000000     0          
T        Si     0.461950000000     0.386400000000     0.104000000000     0          
T        Si     0.461550000000     0.350500000000     0.182900000000     0          
T        Si     0.403150000000     0.361850000000     0.286600000000     0          
T        Si     0.403900000000     0.313200000000     0.487000000000     0          
T        Si     0.437550000000     0.339000000000     0.451100000000     0          
T        Si     0.343300000000     0.343250000000     0.182900000000     0          
T        Si     0.461750000000     0.362250000000     0.426500000000     0          
T        Si     0.402700000000     0.362400000000     0.164900000000     0          
T        Si     0.344850000000     0.393900000000     0.105400000000     0          
T        Si     0.461200000000     0.288100000000     0.470600000000     0          
T        Si     0.461700000000     0.360450000000     0.304500000000     0          
T        Si     0.287400000000     0.305700000000     0.487000000000     0          
T        Si     0.346150000000     0.442500000000     0.425800000000     0          
T        Si     0.286950000000     0.407050000000     0.121300000000     0          
T        Si     0.346650000000     0.365150000000     0.425500000000     0          
T        Si     0.408100000000     0.403050000000     0.122900000000     0          
T        Si     0.288700000000     0.362200000000     0.044200000000     0          
T        Si     0.400650000000     0.400650000000     0.000000000000     0          
T        Si     0.405900000000     0.462300000000     0.409400000000     0          
T        Si     0.405950000000     0.361050000000     0.042800000000     0          
T        Si     0.286600000000     0.286600000000     0.000000000000     0          
T        Si     0.346850000000     0.345450000000     0.061500000000     0          
T        Si     0.404750000000     0.390250000000     0.364000000000     0          
T        Si     0.462500000000     0.344500000000     0.061200000000     0          
T        Si     0.288200000000     0.382500000000     0.364400000000     0          
T        Si     0.288750000000     0.381600000000     0.487300000000     0          
T        Si     0.287650000000     0.402950000000     0.003100000000     0          
T        Si     0.310550000000     0.341550000000     0.018300000000     0          
T        Si     0.388700000000     0.338450000000     0.017200000000     0          
T        Si     0.461050000000     0.461850000000     0.059100000000     0          
T        Si     0.405650000000     0.439200000000     0.040900000000     0          
T        Si     0.308000000000     0.408600000000     0.388900000000     0          
T        Si     0.288500000000     0.288300000000     0.124300000000     0          
T        Si     0.438000000000     0.462350000000     0.452600000000     0          
T        Si     0.345050000000     0.361700000000     0.304700000000     0          
T        Si     0.406500000000     0.391950000000     0.486800000000     0          
T        Si     0.361600000000     0.461700000000     0.452400000000     0          
T        Si     0.382900000000     0.461650000000     0.015900000000     0          
T        Si     0.288050000000     0.438550000000     0.044700000000     0          
T        Si     0.445800000000     0.405300000000     0.077600000000     0          
T        Si     0.358650000000     0.342800000000     0.452300000000     0          
T        Si     0.461350000000     0.460750000000     0.179900000000     0          
T        Si     0.307000000000     0.462050000000     0.018900000000     0          
T        Si     0.340350000000     0.315150000000     0.104900000000     0          
T        Si     0.462100000000     0.311300000000     0.103400000000     0          
T        Si     0.360100000000     0.288650000000     0.079900000000     0          
T        Si     0.349200000000     0.461450000000     0.059600000000     0          
T        Si     0.366750000000     0.404800000000     0.078200000000     0          
T        Si     0.387350000000     0.407750000000     0.390200000000     0          
T        Si     0.287800000000     0.442300000000     0.166000000000     0          
T        Si     0.400650000000     0.440150000000     0.164800000000     0          
T        Si     0.403150000000     0.288400000000     0.119000000000     0          
T        Si     0.436900000000     0.287850000000     0.078700000000     0          
T        Si     0.346850000000     0.313500000000     0.227400000000     0          
T        Si     0.313400000000     0.348250000000     0.138400000000     0          
T        Si     0.385350000000     0.463100000000     0.138300000000     0          
T        Si     0.308150000000     0.461450000000     0.139000000000     0          
T        Si     0.437150000000     0.409250000000     0.199400000000     0          
T        Si     0.392650000000     0.341200000000     0.138300000000     0          
T        Si     0.441750000000     0.287850000000     0.197700000000     0          
T        Si     0.363200000000     0.289000000000     0.200800000000     0          
T        Si     0.357600000000     0.404000000000     0.200200000000     0          
T        Si     0.437300000000     0.462050000000     0.330800000000     0          
T        Si     0.315300000000     0.462000000000     0.261000000000     0          
T        Si     0.344350000000     0.462500000000     0.183600000000     0          
T        Si     0.311250000000     0.339850000000     0.261100000000     0          
T        Si     0.288750000000     0.461750000000     0.408400000000     0          
T        Si     0.462350000000     0.438600000000     0.427600000000     0          
O        O      0.448550000000     0.146950000000     0.739600000000     0          
O        O      0.460900000000     0.095950000000     0.725200000000     0          
O        O      0.000000000000     0.108700000000     0.743800000000     0          
O        O      0.440150000000     0.085950000000     0.747800000000     0          
O        O      0.460150000000     0.154950000000     0.682800000000     0          
O        O      0.438650000000     0.160150000000     0.660200000000     0          
O        O      0.000000000000     0.141850000000     0.664500000000     0          
O        O      0.450850000000     0.101200000000     0.669600000000     0          
O        O      0.376700000000     0.143300000000     0.663300000000     0          
O        O      0.313900000000     0.159900000000     0.661300000000     0          
O        O      0.340450000000     0.152650000000     0.682900000000     0          
O        O      0.330400000000     0.100050000000     0.669100000000     0          
O        O      0.437100000000     0.042800000000     0.660300000000     0          
O        O      0.393000000000     0.000000000000     0.652200000000     0          
O        O      0.395600000000     0.060400000000     0.643000000000     0          
O        O      0.373350000000     0.051500000000     0.665100000000     0          
O        O      0.438800000000     0.207650000000     0.747500000000     0          
O        O      0.398850000000     0.250000000000     0.758300000000     0          
O        O      0.400550000000     0.187400000000     0.765500000000     0          
O        O      0.374150000000     0.202950000000     0.744400000000     0          
O        O      0.377050000000     0.099100000000     0.746200000000     0          
O        O      0.411450000000     0.122800000000     0.764600000000     0          
O        O      0.398900000000     0.058350000000     0.763300000000     0          
O        O      0.312800000000     0.090600000000     0.747100000000     0          
O        O      0.337050000000     0.149500000000     0.741500000000     0          
O        O      0.341850000000     0.099700000000     0.726000000000     0          
O        O      0.250000000000     0.051450000000     0.653300000000     0          
O        O      0.305800000000     0.059550000000     0.640800000000     0          
O        O      0.285800000000     0.000000000000     0.646800000000     0          
O        O      0.308600000000     0.040500000000     0.663600000000     0          
O        O      0.304850000000     0.250000000000     0.636100000000     0          
O        O      0.289900000000     0.207850000000     0.618700000000     0          
O        O      0.289400000000     0.188450000000     0.641600000000     0          
O        O      0.346100000000     0.201550000000     0.630800000000     0          
O        O      0.296800000000     0.095700000000     0.621400000000     0          
O        O      0.293150000000     0.123250000000     0.643000000000     0          
O        O      0.351200000000     0.103350000000     0.634600000000     0          
O        O      0.250000000000     0.190550000000     0.601000000000     0          
O        O      0.313100000000     0.204700000000     0.596400000000     0          
O        O      0.297450000000     0.149900000000     0.608000000000     0          
O        O      0.250000000000     0.155750000000     0.656200000000     0          
O        O      0.312100000000     0.000000000000     0.771800000000     0          
O        O      0.293850000000     0.037650000000     0.790000000000     0          
O        O      0.351050000000     0.048350000000     0.779000000000     0          
O        O      0.294750000000     0.062000000000     0.767700000000     0          
O        O      0.336200000000     0.051000000000     0.684800000000     0          
O        O      0.444650000000     0.000000000000     0.698000000000     0          
O        O      0.459650000000     0.047800000000     0.682700000000     0          
O        O      0.445800000000     0.061650000000     0.705700000000     0          
O        O      0.398350000000     0.041800000000     0.690900000000     0          
O        O      0.444350000000     0.190750000000     0.702000000000     0          
O        O      0.400550000000     0.149800000000     0.692300000000     0          
O        O      0.452250000000     0.126350000000     0.704200000000     0          
O        O      0.449100000000     0.250000000000     0.711700000000     0          
O        O      0.399650000000     0.210700000000     0.717900000000     0          
O        O      0.460450000000     0.197350000000     0.725200000000     0          
O        O      0.250000000000     0.105400000000     0.604900000000     0          
O        O      0.311450000000     0.092100000000     0.598200000000     0          
O        O      0.250000000000     0.198950000000     0.755300000000     0          
O        O      0.308800000000     0.207650000000     0.745000000000     0          
O        O      0.305100000000     0.190200000000     0.768000000000     0          
O        O      0.286950000000     0.250000000000     0.761400000000     0          
O        O      0.401100000000     0.100850000000     0.715900000000     0          
O        O      0.250000000000     0.088150000000     0.753300000000     0          
O        O      0.290550000000     0.127000000000     0.765400000000     0          
O        O      0.399050000000     0.189150000000     0.523100000000     0          
O        O      0.374950000000     0.147250000000     0.539300000000     0          
O        O      0.407900000000     0.124500000000     0.520400000000     0          
O        O      0.439100000000     0.157300000000     0.537700000000     0          
O        O      0.374850000000     0.104300000000     0.602100000000     0          
O        O      0.345900000000     0.124850000000     0.582000000000     0          
O        O      0.357100000000     0.060950000000     0.585400000000     0          
O        O      0.392600000000     0.188100000000     0.646800000000     0          
O        O      0.407950000000     0.124800000000     0.643500000000     0          
O        O      0.361550000000     0.188450000000     0.581400000000     0          
O        O      0.375100000000     0.203000000000     0.604200000000     0          
O        O      0.355900000000     0.250000000000     0.589100000000     0          
O        O      0.356250000000     0.190850000000     0.701500000000     0          
O        O      0.339000000000     0.195450000000     0.724400000000     0          
O        O      0.350100000000     0.250000000000     0.711800000000     0          
O        O      0.250000000000     0.146950000000     0.534900000000     0          
O        O      0.286100000000     0.188550000000     0.522300000000     0          
O        O      0.311400000000     0.160250000000     0.541700000000     0          
O        O      0.300300000000     0.124550000000     0.522100000000     0          
O        O      0.397650000000     0.059700000000     0.520700000000     0          
O        O      0.374150000000     0.052300000000     0.542900000000     0          
O        O      0.392900000000     0.000000000000     0.530300000000     0          
O        O      0.437700000000     0.042000000000     0.538500000000     0          
O        O      0.400950000000     0.151650000000     0.785600000000     0          
O        O      0.352050000000     0.145050000000     0.770000000000     0          
O        O      0.393250000000     0.000000000000     0.773800000000     0          
O        O      0.412600000000     0.052050000000     0.786600000000     0          
O        O      0.344050000000     0.190900000000     0.824700000000     0          
O        O      0.359250000000     0.195500000000     0.847900000000     0          
O        O      0.351300000000     0.250000000000     0.834900000000     0          
O        O      0.403050000000     0.211600000000     0.831100000000     0          
O        O      0.405500000000     0.060250000000     0.886100000000     0          
O        O      0.348900000000     0.051450000000     0.897700000000     0          
O        O      0.385450000000     0.000000000000     0.891500000000     0          
O        O      0.406200000000     0.040350000000     0.908700000000     0          
O        O      0.358750000000     0.061500000000     0.828700000000     0          
O        O      0.354200000000     0.000000000000     0.821000000000     0          
O        O      0.375950000000     0.046500000000     0.806200000000     0          
O        O      0.312900000000     0.045350000000     0.812700000000     0          
O        O      0.354800000000     0.061100000000     0.707300000000     0          
O        O      0.349600000000     0.126050000000     0.704400000000     0          
O        O      0.294600000000     0.099600000000     0.500100000000     0          
O        O      0.352750000000     0.099750000000     0.511200000000     0          
O        O      0.304800000000     0.060050000000     0.518600000000     0          
O        O      0.337750000000     0.050500000000     0.562800000000     0          
O        O      0.334500000000     0.102250000000     0.548400000000     0          
O        O      0.308900000000     0.044800000000     0.541700000000     0          
O        O      0.372250000000     0.156700000000     0.807000000000     0          
O        O      0.348400000000     0.125750000000     0.826200000000     0          
O        O      0.307450000000     0.153450000000     0.810600000000     0          
O        O      0.354350000000     0.000000000000     0.576800000000     0          
O        O      0.400000000000     0.041500000000     0.568800000000     0          
O        O      0.341300000000     0.097600000000     0.847500000000     0          
O        O      0.401100000000     0.104000000000     0.838000000000     0          
O        O      0.413400000000     0.187650000000     0.889800000000     0          
O        O      0.354950000000     0.164250000000     0.895200000000     0          
O        O      0.407400000000     0.144900000000     0.907800000000     0          
O        O      0.400050000000     0.125400000000     0.885000000000     0          
O        O      0.289150000000     0.000000000000     0.525800000000     0          
O        O      0.250000000000     0.050150000000     0.531200000000     0          
O        O      0.352500000000     0.000000000000     0.698600000000     0          
O        O      0.306050000000     0.250000000000     0.518300000000     0          
O        O      0.343400000000     0.199750000000     0.511400000000     0          
O        O      0.287450000000     0.212550000000     0.500000000000     0          
O        O      0.457700000000     0.156000000000     0.560600000000     0          
O        O      0.403850000000     0.143500000000     0.573400000000     0          
O        O      0.445950000000     0.189450000000     0.580700000000     0          
O        O      0.462450000000     0.126300000000     0.581900000000     0          
O        O      0.375150000000     0.201350000000     0.871000000000     0          
O        O      0.439450000000     0.214250000000     0.870100000000     0          
O        O      0.400500000000     0.250000000000     0.883900000000     0          
O        O      0.349350000000     0.156150000000     0.561100000000     0          
O        O      0.436000000000     0.092500000000     0.868800000000     0          
O        O      0.370950000000     0.088000000000     0.868500000000     0          
O        O      0.346800000000     0.188950000000     0.945100000000     0          
O        O      0.341600000000     0.204350000000     0.968100000000     0          
O        O      0.359550000000     0.250000000000     0.952200000000     0          
O        O      0.400600000000     0.201250000000     0.957800000000     0          
O        O      0.396450000000     0.062200000000     0.005300000000     0          
O        O      0.394800000000     0.126200000000     0.010600000000     0          
O        O      0.440400000000     0.101100000000     0.602500000000     0          
O        O      0.447050000000     0.062750000000     0.583400000000     0          
O        O      0.000000000000     0.085750000000     0.594500000000     0          
O        O      0.355000000000     0.058900000000     0.950600000000     0          
O        O      0.399650000000     0.098000000000     0.960900000000     0          
O        O      0.339000000000     0.095100000000     0.969500000000     0          
O        O      0.350600000000     0.124050000000     0.948400000000     0          
O        O      0.250000000000     0.209850000000     0.994100000000     0          
O        O      0.314450000000     0.209200000000     0.989600000000     0          
O        O      0.309600000000     0.148850000000     0.932200000000     0          
O        O      0.373950000000     0.151700000000     0.928200000000     0          
O        O      0.406400000000     0.093300000000     0.622600000000     0          
O        O      0.375550000000     0.035900000000     0.929600000000     0          
O        O      0.313050000000     0.054400000000     0.932200000000     0          
O        O      0.335250000000     0.000000000000     0.942800000000     0          
O        O      0.408650000000     0.207550000000     0.624600000000     0          
O        O      0.382100000000     0.250000000000     0.640000000000     0          
O        O      0.383300000000     0.250000000000     0.516300000000     0          
O        O      0.405000000000     0.191200000000     0.009300000000     0          
O        O      0.377650000000     0.194250000000     0.987700000000     0          
O        O      0.439000000000     0.213300000000     0.990500000000     0          
O        O      0.391250000000     0.250000000000     0.999600000000     0          
O        O      0.331800000000     0.150600000000     0.981400000000     0          
O        O      0.440350000000     0.046300000000     0.928900000000     0          
O        O      0.000000000000     0.049550000000     0.938600000000     0          
O        O      0.447050000000     0.059950000000     0.952100000000     0          
O        O      0.460100000000     0.000000000000     0.944200000000     0          
O        O      0.457050000000     0.094100000000     0.972200000000     0          
O        O      0.453150000000     0.125150000000     0.951200000000     0          
O        O      0.440800000000     0.205150000000     0.603800000000     0          
O        O      0.409850000000     0.152100000000     0.612200000000     0          
O        O      0.250000000000     0.205200000000     0.872000000000     0          
O        O      0.297900000000     0.188350000000     0.887100000000     0          
O        O      0.312300000000     0.202450000000     0.864500000000     0          
O        O      0.293250000000     0.250000000000     0.879300000000     0          
O        O      0.000000000000     0.060850000000     0.542400000000     0          
O        O      0.461500000000     0.045650000000     0.560800000000     0          
O        O      0.450150000000     0.100100000000     0.548400000000     0          
O        O      0.409300000000     0.090700000000     0.500000000000     0          
O        O      0.000000000000     0.140050000000     0.543400000000     0          
O        O      0.000000000000     0.116400000000     0.988300000000     0          
O        O      0.450800000000     0.154600000000     0.980700000000     0          
O        O      0.439550000000     0.250000000000     0.950700000000     0          
O        O      0.454350000000     0.188150000000     0.945000000000     0          
O        O      0.459450000000     0.208850000000     0.967700000000     0          
O        O      0.398800000000     0.093700000000     0.922300000000     0          
O        O      0.441150000000     0.049500000000     0.808000000000     0          
O        O      0.453850000000     0.000000000000     0.823000000000     0          
O        O      0.447850000000     0.061600000000     0.831200000000     0          
O        O      0.000000000000     0.044600000000     0.818200000000     0          
O        O      0.000000000000     0.195100000000     0.985700000000     0          
O        O      0.301700000000     0.162000000000     0.908900000000     0          
O        O      0.306350000000     0.123600000000     0.889700000000     0          
O        O      0.311800000000     0.000000000000     0.891900000000     0          
O        O      0.290700000000     0.060650000000     0.887200000000     0          
O        O      0.294300000000     0.039050000000     0.909900000000     0          
O        O      0.250000000000     0.147950000000     0.922600000000     0          
O        O      0.293350000000     0.101050000000     0.917000000000     0          
O        O      0.000000000000     0.147300000000     0.936700000000     0          
O        O      0.438650000000     0.142600000000     0.928800000000     0          
O        O      0.455500000000     0.250000000000     0.833400000000     0          
O        O      0.461600000000     0.189500000000     0.824200000000     0          
O        O      0.448550000000     0.197250000000     0.847400000000     0          
O        O      0.460800000000     0.108150000000     0.847300000000     0          
O        O      0.451200000000     0.124500000000     0.824600000000     0          
O        O      0.250000000000     0.107150000000     0.879200000000     0          
O        O      0.306550000000     0.096550000000     0.867900000000     0          
O        O      0.250000000000     0.058600000000     0.925900000000     0          
O        O      0.305900000000     0.150900000000     0.786900000000     0          
O        O      0.346400000000     0.146850000000     0.863200000000     0          
O        O      0.000000000000     0.104800000000     0.866200000000     0          
O        O      0.456800000000     0.153350000000     0.864700000000     0          
O        O      0.000000000000     0.202350000000     0.862100000000     0          
O        O      0.406500000000     0.102700000000     0.801500000000     0          
O        O      0.250000000000     0.053100000000     0.806700000000     0          
O        O      0.294250000000     0.097150000000     0.799700000000     0          
O        O      0.250000000000     0.145800000000     0.799400000000     0          
O        O      0.437450000000     0.159150000000     0.805100000000     0          
O        O      0.000000000000     0.059900000000     0.664600000000     0          
O        O      0.000000000000     0.186000000000     0.743700000000     0          
O        O      0.000000000000     0.149750000000     0.811600000000     0          
O        O      0.460050000000     0.250000000000     0.587900000000     0          
O        O      0.000000000000     0.200700000000     0.593600000000     0          
O        O      0.445400000000     0.000000000000     0.576800000000     0          
T        Si     0.462150000000     0.109300000000     0.739000000000     0          
T        Si     0.462250000000     0.139600000000     0.669400000000     0          
T        Si     0.340300000000     0.138850000000     0.669200000000     0          
T        Si     0.399800000000     0.038650000000     0.655200000000     0          
T        Si     0.403050000000     0.211900000000     0.754000000000     0          
T        Si     0.406700000000     0.091500000000     0.755600000000     0          
T        Si     0.342250000000     0.110000000000     0.740200000000     0          
T        Si     0.287400000000     0.038200000000     0.651200000000     0          
T        Si     0.307500000000     0.211850000000     0.631700000000     0          
T        Si     0.311950000000     0.095650000000     0.634900000000     0          
T        Si     0.287650000000     0.188300000000     0.605900000000     0          
T        Si     0.287000000000     0.156850000000     0.650600000000     0          
T        Si     0.312900000000     0.037300000000     0.777100000000     0          
T        Si     0.337400000000     0.060850000000     0.670600000000     0          
T        Si     0.437150000000     0.038000000000     0.694300000000     0          
T        Si     0.439300000000     0.155450000000     0.695300000000     0          
T        Si     0.438400000000     0.212000000000     0.714200000000     0          
T        Si     0.288700000000     0.110850000000     0.608200000000     0          
T        Si     0.287650000000     0.211550000000     0.757300000000     0          
T        Si     0.439950000000     0.096200000000     0.712800000000     0          
T        Si     0.287400000000     0.091950000000     0.758400000000     0          
T        Si     0.405050000000     0.154450000000     0.530000000000     0          
T        Si     0.347500000000     0.095500000000     0.591900000000     0          
T        Si     0.403800000000     0.154150000000     0.653300000000     0          
T        Si     0.351400000000     0.211450000000     0.592800000000     0          
T        Si     0.361150000000     0.211900000000     0.713800000000     0          
T        Si     0.287150000000     0.155000000000     0.530300000000     0          
T        Si     0.400550000000     0.038600000000     0.533100000000     0          
T        Si     0.391350000000     0.151900000000     0.771400000000     0          
T        Si     0.389050000000     0.039450000000     0.775700000000     0          
T        Si     0.364250000000     0.212050000000     0.834700000000     0          
T        Si     0.386400000000     0.038050000000     0.896000000000     0          
T        Si     0.350500000000     0.038450000000     0.817100000000     0          
T        Si     0.361850000000     0.096850000000     0.713400000000     0          
T        Si     0.313200000000     0.096100000000     0.513000000000     0          
T        Si     0.339000000000     0.062450000000     0.548900000000     0          
T        Si     0.343250000000     0.156700000000     0.817100000000     0          
T        Si     0.362250000000     0.038250000000     0.573500000000     0          
T        Si     0.362400000000     0.097300000000     0.835100000000     0          
T        Si     0.393900000000     0.155150000000     0.894600000000     0          
T        Si     0.288100000000     0.038800000000     0.529400000000     0          
T        Si     0.360450000000     0.038300000000     0.695500000000     0          
T        Si     0.305700000000     0.212600000000     0.513000000000     0          
T        Si     0.442500000000     0.153850000000     0.574200000000     0          
T        Si     0.407050000000     0.213050000000     0.878700000000     0          
T        Si     0.365150000000     0.153350000000     0.574500000000     0          
T        Si     0.403050000000     0.091900000000     0.877100000000     0          
T        Si     0.362200000000     0.211300000000     0.955800000000     0          
T        Si     0.400650000000     0.099350000000     0.000000000000     0          
T        Si     0.462300000000     0.094100000000     0.590600000000     0          
T        Si     0.361050000000     0.094050000000     0.957200000000     0          
T        Si     0.286600000000     0.213400000000     0.000000000000     0          
T        Si     0.345450000000     0.153150000000     0.938500000000     0          
T        Si     0.390250000000     0.095250000000     0.636000000000     0          
T        Si     0.344500000000     0.037500000000     0.938800000000     0          
T        Si     0.382500000000     0.211800000000     0.635600000000     0          
T        Si     0.381600000000     0.211250000000     0.512700000000     0          
T        Si     0.402950000000     0.212350000000     0.996900000000     0          
T        Si     0.341550000000     0.189450000000     0.981700000000     0          
T        Si     0.338450000000     0.111300000000     0.982800000000     0          
T        Si     0.461850000000     0.038950000000     0.940900000000     0          
T        Si     0.439200000000     0.094350000000     0.959100000000     0          
T        Si     0.408600000000     0.192000000000     0.611100000000     0          
T        Si     0.288300000000     0.211500000000     0.875700000000     0          
T        Si     0.462350000000     0.062000000000     0.547400000000     0          
T        Si     0.361700000000     0.154950000000     0.695300000000     0          
T        Si     0.391950000000     0.093500000000     0.513200000000     0          
T        Si     0.461700000000     0.138400000000     0.547600000000     0          
T        Si     0.461650000000     0.117100000000     0.984100000000     0          
T        Si     0.438550000000     0.211950000000     0.955300000000     0          
T        Si     0.405300000000     0.054200000000     0.922400000000     0          
T        Si     0.342800000000     0.141350000000     0.547700000000     0          
T        Si     0.460750000000     0.038650000000     0.820100000000     0          
T        Si     0.462050000000     0.193000000000     0.981100000000     0          
T        Si     0.315150000000     0.159650000000     0.895100000000     0          
T        Si     0.311300000000     0.037900000000     0.896600000000     0          
T        Si     0.288650000000     0.139900000000     0.920100000000     0          
T        Si     0.461450000000     0.150800000000     0.940400000000     0          
T        Si     0.404800000000     0.133250000000     0.921800000000     0          
T        Si     0.407750000000     0.112650000000     0.609800000000     0          
T        Si     0.442300000000     0.212200000000     0.834000000000     0          
T        Si     0.440150000000     0.099350000000     0.835200000000     0          
T        Si     0.288400000000     0.096850000000     0.881000000000     0          
T        Si     0.287850000000     0.063100000000     0.921300000000     0          
T        Si     0.313500000000     0.153150000000     0.772600000000     0          
T        Si     0.348250000000     0.186600000000     0.861600000000     0          
T        Si     0.463100000000     0.114650000000     0.861700000000     0          
T        Si     0.461450000000     0.191850000000     0.861000000000     0          
T        Si     0.409250000000     0.062850000000     0.800600000000     0          
T        Si     0.341200000000     0.107350000000     0.861700000000     0          
T        Si     0.287850000000     0.058250000000     0.802300000000     0          
T        Si     0.289000000000     0.136800000000     0.799200000000     0          
T        Si     0.404000000000     0.142400000000     0.799800000000     0          
T        Si     0.462050000000     0.062700000000     0.669200000000     0          
T        Si     0.462000000000     0.184700000000     0.739000000000     0          
T        Si     0.462500000000     0.155650000000     0.816400000000     0          
T        Si     0.339850000000     0.188750000000     0.738900000000     0          
T        Si     0.461750000000     0.211250000000     0.591600000000     0          
T        Si     0.438600000000     0.037650000000     0.572400000000     0          
O        O      0.353050000000     0.051450000000     0.260400000000     0          
O        O      0.404050000000     0.039100000000     0.274800000000     0          
O        O      0.414050000000     0.059850000000     0.252200000000     0          
O        O      0.345050000000     0.039850000000     0.317200000000     0          
O        O      0.339850000000     0.061350000000     0.339800000000     0          
O        O      0.398800000000     0.049150000000     0.330400000000     0          
O        O      0.356700000000     0.123300000000     0.336700000000     0          
O        O      0.340100000000     0.186100000000     0.338700000000     0          
O        O      0.347350000000     0.159550000000     0.317100000000     0          
O        O      0.399950000000     0.169600000000     0.330900000000     0          
O        O      0.457200000000     0.062900000000     0.339700000000     0          
O        O      0.439600000000     0.104400000000     0.357000000000     0          
O        O      0.448500000000     0.126650000000     0.334900000000     0          
O        O      0.292350000000     0.061200000000     0.252500000000     0          
O        O      0.312600000000     0.099450000000     0.234500000000     0          
O        O      0.297050000000     0.125850000000     0.255600000000     0          
O        O      0.400900000000     0.122950000000     0.253800000000     0          
O        O      0.377200000000     0.088550000000     0.235400000000     0          
O        O      0.441650000000     0.101100000000     0.236700000000     0          
O        O      0.409400000000     0.187200000000     0.252900000000     0          
O        O      0.350500000000     0.162950000000     0.258500000000     0          
O        O      0.400300000000     0.158150000000     0.274000000000     0          
O        O      0.440450000000     0.194200000000     0.359200000000     0          
O        O      0.459500000000     0.191400000000     0.336400000000     0          
O        O      0.292150000000     0.210100000000     0.381300000000     0          
O        O      0.311550000000     0.210600000000     0.358400000000     0          
O        O      0.298450000000     0.153900000000     0.369200000000     0          
O        O      0.404300000000     0.203200000000     0.378600000000     0          
O        O      0.376750000000     0.206850000000     0.357000000000     0          
O        O      0.396650000000     0.148800000000     0.365400000000     0          
O        O      0.295300000000     0.186900000000     0.403600000000     0          
O        O      0.350100000000     0.202550000000     0.392000000000     0          
O        O      0.462350000000     0.206150000000     0.210000000000     0          
O        O      0.451650000000     0.148950000000     0.221000000000     0          
O        O      0.438000000000     0.205250000000     0.232300000000     0          
O        O      0.449000000000     0.163800000000     0.315200000000     0          
O        O      0.452200000000     0.040350000000     0.317300000000     0          
O        O      0.438350000000     0.054200000000     0.294300000000     0          
O        O      0.458200000000     0.101650000000     0.309100000000     0          
O        O      0.309250000000     0.055650000000     0.298000000000     0          
O        O      0.350200000000     0.099450000000     0.307700000000     0          
O        O      0.373650000000     0.047750000000     0.295800000000     0          
O        O      0.289300000000     0.100350000000     0.282100000000     0          
O        O      0.302650000000     0.039550000000     0.274800000000     0          
O        O      0.407900000000     0.188550000000     0.401800000000     0          
O        O      0.292350000000     0.191200000000     0.255000000000     0          
O        O      0.309800000000     0.194900000000     0.232000000000     0          
O        O      0.399150000000     0.098900000000     0.284100000000     0          
O        O      0.373000000000     0.209450000000     0.234600000000     0          
O        O      0.310850000000     0.100950000000     0.476900000000     0          
O        O      0.352750000000     0.125050000000     0.460700000000     0          
O        O      0.375500000000     0.092100000000     0.479600000000     0          
O        O      0.342700000000     0.060900000000     0.462300000000     0          
O        O      0.395700000000     0.125150000000     0.397900000000     0          
O        O      0.375150000000     0.154100000000     0.418000000000     0          
O        O      0.439050000000     0.142900000000     0.414600000000     0          
O        O      0.311900000000     0.107400000000     0.353200000000     0          
O        O      0.375200000000     0.092050000000     0.356500000000     0          
O        O      0.311550000000     0.138450000000     0.418600000000     0          
O        O      0.297000000000     0.124900000000     0.395800000000     0          
O        O      0.309150000000     0.143750000000     0.298500000000     0          
O        O      0.304550000000     0.161000000000     0.275600000000     0          
O        O      0.311450000000     0.213900000000     0.477700000000     0          
O        O      0.339750000000     0.188600000000     0.458300000000     0          
O        O      0.375450000000     0.199700000000     0.477900000000     0          
O        O      0.440300000000     0.102350000000     0.479300000000     0          
O        O      0.447700000000     0.125850000000     0.457100000000     0          
O        O      0.458000000000     0.062300000000     0.461500000000     0          
O        O      0.348350000000     0.099050000000     0.214400000000     0          
O        O      0.354950000000     0.147950000000     0.230000000000     0          
O        O      0.447950000000     0.087400000000     0.213400000000     0          
O        O      0.309100000000     0.155950000000     0.175300000000     0          
O        O      0.304500000000     0.140750000000     0.152100000000     0          
O        O      0.288400000000     0.096950000000     0.168900000000     0          
O        O      0.439750000000     0.094500000000     0.113900000000     0          
O        O      0.448550000000     0.151100000000     0.102300000000     0          
O        O      0.459650000000     0.093800000000     0.091300000000     0          
O        O      0.438500000000     0.141250000000     0.171300000000     0          
O        O      0.453500000000     0.124050000000     0.193800000000     0          
O        O      0.454650000000     0.187100000000     0.187300000000     0          
O        O      0.438900000000     0.145200000000     0.292700000000     0          
O        O      0.373950000000     0.150400000000     0.295600000000     0          
O        O      0.400400000000     0.205400000000     0.499900000000     0          
O        O      0.400250000000     0.147250000000     0.488800000000     0          
O        O      0.439950000000     0.195200000000     0.481400000000     0          
O        O      0.449500000000     0.162250000000     0.437200000000     0          
O        O      0.397750000000     0.165500000000     0.451600000000     0          
O        O      0.455200000000     0.191100000000     0.458300000000     0          
O        O      0.343300000000     0.127750000000     0.193000000000     0          
O        O      0.374250000000     0.151600000000     0.173800000000     0          
O        O      0.346550000000     0.192550000000     0.189400000000     0          
O        O      0.458500000000     0.100000000000     0.431200000000     0          
O        O      0.402400000000     0.158700000000     0.152500000000     0          
O        O      0.396000000000     0.098900000000     0.162000000000     0          
O        O      0.312350000000     0.086600000000     0.110200000000     0          
O        O      0.335750000000     0.145050000000     0.104800000000     0          
O        O      0.355100000000     0.092600000000     0.092200000000     0          
O        O      0.374600000000     0.099950000000     0.115000000000     0          
O        O      0.300250000000     0.156600000000     0.488600000000     0          
O        O      0.344000000000     0.042300000000     0.439400000000     0          
O        O      0.356500000000     0.096150000000     0.426600000000     0          
O        O      0.310550000000     0.054050000000     0.419300000000     0          
O        O      0.373700000000     0.037550000000     0.418100000000     0          
O        O      0.298650000000     0.124850000000     0.129000000000     0          
O        O      0.285750000000     0.060550000000     0.129900000000     0          
O        O      0.343850000000     0.150650000000     0.438900000000     0          
O        O      0.407500000000     0.064000000000     0.131200000000     0          
O        O      0.412000000000     0.129050000000     0.131500000000     0          
O        O      0.311050000000     0.153200000000     0.054900000000     0          
O        O      0.295650000000     0.158400000000     0.031900000000     0          
O        O      0.298750000000     0.099400000000     0.042200000000     0          
O        O      0.437800000000     0.103550000000     0.994700000000     0          
O        O      0.373800000000     0.105200000000     0.989400000000     0          
O        O      0.398900000000     0.059600000000     0.397500000000     0          
O        O      0.437250000000     0.052950000000     0.416600000000     0          
O        O      0.441100000000     0.145000000000     0.049400000000     0          
O        O      0.402000000000     0.100350000000     0.039100000000     0          
O        O      0.404900000000     0.161000000000     0.030500000000     0          
O        O      0.375950000000     0.149400000000     0.051600000000     0          
O        O      0.290800000000     0.185550000000     0.010400000000     0          
O        O      0.351150000000     0.190400000000     0.067800000000     0          
O        O      0.348300000000     0.126050000000     0.071800000000     0          
O        O      0.406700000000     0.093600000000     0.377400000000     0          
O        O      0.464100000000     0.124450000000     0.070400000000     0          
O        O      0.445600000000     0.186950000000     0.067800000000     0          
O        O      0.292450000000     0.091350000000     0.375400000000     0          
O        O      0.308800000000     0.095000000000     0.990700000000     0          
O        O      0.305750000000     0.122350000000     0.012300000000     0          
O        O      0.286700000000     0.061000000000     0.009500000000     0          
O        O      0.349400000000     0.168200000000     0.018600000000     0          
O        O      0.453700000000     0.059650000000     0.071100000000     0          
O        O      0.440050000000     0.052950000000     0.047900000000     0          
O        O      0.405900000000     0.042950000000     0.027800000000     0          
O        O      0.374850000000     0.046850000000     0.048800000000     0          
O        O      0.294850000000     0.059200000000     0.396200000000     0          
O        O      0.347900000000     0.090150000000     0.387800000000     0          
O        O      0.311650000000     0.202100000000     0.112900000000     0          
O        O      0.297550000000     0.187700000000     0.135500000000     0          
O        O      0.454350000000     0.038500000000     0.439200000000     0          
O        O      0.399900000000     0.049850000000     0.451600000000     0          
O        O      0.345400000000     0.049200000000     0.019300000000     0          
O        O      0.311850000000     0.045650000000     0.055000000000     0          
O        O      0.291150000000     0.040550000000     0.032300000000     0          
O        O      0.406300000000     0.101200000000     0.077700000000     0          
O        O      0.450500000000     0.058850000000     0.192000000000     0          
O        O      0.438400000000     0.052150000000     0.168800000000     0          
O        O      0.338000000000     0.198300000000     0.091100000000     0          
O        O      0.376400000000     0.193650000000     0.110300000000     0          
O        O      0.439350000000     0.209300000000     0.112800000000     0          
O        O      0.460950000000     0.205700000000     0.090100000000     0          
O        O      0.398950000000     0.206650000000     0.083000000000     0          
O        O      0.357400000000     0.061350000000     0.071200000000     0          
O        O      0.310500000000     0.038400000000     0.175800000000     0          
O        O      0.302750000000     0.051450000000     0.152600000000     0          
O        O      0.391850000000     0.039200000000     0.152700000000     0          
O        O      0.375500000000     0.048800000000     0.175400000000     0          
O        O      0.403450000000     0.193450000000     0.132100000000     0          
O        O      0.349100000000     0.194100000000     0.213100000000     0          
O        O      0.353150000000     0.153600000000     0.136800000000     0          
O        O      0.346650000000     0.043200000000     0.135300000000     0          
O        O      0.397300000000     0.093500000000     0.198500000000     0          
O        O      0.402850000000     0.205750000000     0.200300000000     0          
O        O      0.340850000000     0.062550000000     0.194900000000     0          
T        Si     0.390700000000     0.037850000000     0.261000000000     0          
T        Si     0.360400000000     0.037750000000     0.330600000000     0          
T        Si     0.361150000000     0.159700000000     0.330800000000     0          
T        Si     0.461350000000     0.100200000000     0.344800000000     0          
T        Si     0.288100000000     0.096950000000     0.246000000000     0          
T        Si     0.408500000000     0.093300000000     0.244400000000     0          
T        Si     0.390000000000     0.157750000000     0.259800000000     0          
T        Si     0.461800000000     0.212600000000     0.348800000000     0          
T        Si     0.288150000000     0.192500000000     0.368300000000     0          
T        Si     0.404350000000     0.188050000000     0.365100000000     0          
T        Si     0.311700000000     0.212350000000     0.394100000000     0          
T        Si     0.343150000000     0.213000000000     0.349400000000     0          
T        Si     0.462700000000     0.187100000000     0.222900000000     0          
T        Si     0.439150000000     0.162600000000     0.329400000000     0          
T        Si     0.462000000000     0.062850000000     0.305700000000     0          
T        Si     0.344550000000     0.060700000000     0.304700000000     0          
T        Si     0.288000000000     0.061600000000     0.285800000000     0          
T        Si     0.389150000000     0.211300000000     0.391800000000     0          
T        Si     0.288450000000     0.212350000000     0.242700000000     0          
T        Si     0.403800000000     0.060050000000     0.287200000000     0          
T        Si     0.408050000000     0.212600000000     0.241600000000     0          
T        Si     0.345550000000     0.094950000000     0.470000000000     0          
T        Si     0.404500000000     0.152500000000     0.408100000000     0          
T        Si     0.345850000000     0.096200000000     0.346700000000     0          
T        Si     0.288550000000     0.148600000000     0.407200000000     0          
T        Si     0.288100000000     0.138850000000     0.286200000000     0          
T        Si     0.345000000000     0.212850000000     0.469700000000     0          
T        Si     0.461400000000     0.099450000000     0.466900000000     0          
T        Si     0.348100000000     0.108650000000     0.228600000000     0          
T        Si     0.460550000000     0.110950000000     0.224300000000     0          
T        Si     0.287950000000     0.135750000000     0.165300000000     0          
T        Si     0.461950000000     0.113600000000     0.104000000000     0          
T        Si     0.461550000000     0.149500000000     0.182900000000     0          
T        Si     0.403150000000     0.138150000000     0.286600000000     0          
T        Si     0.403900000000     0.186800000000     0.487000000000     0          
T        Si     0.437550000000     0.161000000000     0.451100000000     0          
T        Si     0.343300000000     0.156750000000     0.182900000000     0          
T        Si     0.461750000000     0.137750000000     0.426500000000     0          
T        Si     0.402700000000     0.137600000000     0.164900000000     0          
T        Si     0.344850000000     0.106100000000     0.105400000000     0          
T        Si     0.461200000000     0.211900000000     0.470600000000     0          
T        Si     0.461700000000     0.139550000000     0.304500000000     0          
T        Si     0.287400000000     0.194300000000     0.487000000000     0          
T        Si     0.346150000000     0.057500000000     0.425800000000     0          
T        Si     0.286950000000     0.092950000000     0.121300000000     0          
T        Si     0.346650000000     0.134850000000     0.425500000000     0          
T        Si     0.408100000000     0.096950000000     0.122900000000     0          
T        Si     0.288700000000     0.137800000000     0.044200000000     0          
T        Si     0.405900000000     0.037700000000     0.409400000000     0          
T        Si     0.405950000000     0.138950000000     0.042800000000     0          
T        Si     0.346850000000     0.154550000000     0.061500000000     0          
T        Si     0.404750000000     0.109750000000     0.364000000000     0          
T        Si     0.462500000000     0.155500000000     0.061200000000     0          
T        Si     0.288200000000     0.117500000000     0.364400000000     0          
T        Si     0.288750000000     0.118400000000     0.487300000000     0          
T        Si     0.287650000000     0.097050000000     0.003100000000     0          
T        Si     0.310550000000     0.158450000000     0.018300000000     0          
T        Si     0.388700000000     0.161550000000     0.017200000000     0          
T        Si     0.461050000000     0.038150000000     0.059100000000     0          
T        Si     0.405650000000     0.060800000000     0.040900000000     0          
T        Si     0.308000000000     0.091400000000     0.388900000000     0          
T        Si     0.288500000000     0.211700000000     0.124300000000     0          
T        Si     0.438000000000     0.037650000000     0.452600000000     0          
T        Si     0.345050000000     0.138300000000     0.304700000000     0          
T        Si     0.406500000000     0.108050000000     0.486800000000     0          
T        Si     0.361600000000     0.038300000000     0.452400000000     0          
T        Si     0.382900000000     0.038350000000     0.015900000000     0          
T        Si     0.288050000000     0.061450000000     0.044700000000     0          
T        Si     0.445800000000     0.094700000000     0.077600000000     0          
T        Si     0.358650000000     0.157200000000     0.452300000000     0          
T        Si     0.461350000000     0.039250000000     0.179900000000     0          
T        Si     0.307000000000     0.037950000000     0.018900000000     0          
T        Si     0.340350000000     0.184850000000     0.104900000000     0          
T        Si     0.462100000000     0.188700000000     0.103400000000     0          
T        Si     0.360100000000     0.211350000000     0.079900000000     0          
T        Si     0.349200000000     0.038550000000     0.059600000000     0          
T        Si     0.366750000000     0.095200000000     0.078200000000     0          
T        Si     0.387350000000     0.092250000000     0.390200000000     0          
T        Si     0.287800000000     0.057700000000     0.166000000000     0          
T        Si     0.400650000000     0.059850000000     0.164800000000     0          
T        Si     0.403150000000     0.211600000000     0.119000000000     0          
T        Si     0.436900000000     0.212150000000     0.078700000000     0          
T        Si     0.346850000000     0.186500000000     0.227400000000     0          
T        Si     0.313400000000     0.151750000000     0.138400000000     0          
T        Si     0.385350000000     0.036900000000     0.138300000000     0          
T        Si     0.308150000000     0.038550000000     0.139000000000     0          
T        Si     0.437150000000     0.090750000000     0.199400000000     0          
T        Si     0.392650000000     0.158800000000     0.138300000000     0          
T        Si     0.441750000000     0.212150000000     0.197700000000     0          
T        Si     0.363200000000     0.211000000000     0.200800000000     0          
T        Si     0.357600000000     0.096000000000     0.200200000000     0          
T        Si     0.437300000000     0.037950000000     0.330800000000     0          
T        Si     0.315300000000     0.038000000000     0.261000000000     0          
T        Si     0.344350000000     0.037500000000     0.183600000000     0          
T        Si     0.311250000000     0.160150000000     0.261100000000     0          
T        Si     0.288750000000     0.038250000000     0.408400000000     0          
T        Si     0.462350000000     0.061400000000     0.427600000000     0          
O        O      0.051450000000     0.146950000000     0.739600000000     0          
O        O      0.039100000000     0.095950000000     0.725200000000     0          
O        O      0.059850000000     0.085950000000     0.747800000000     0          
O        O      0.039850000000     0.154950000000     0.682800000000     0          
O        O      0.061350000000     0.160150000000     0.660200000000     0          
O        O      0.049150000000     0.101200000000     0.669600000000     0          
O        O      0.123300000000     0.143300000000     0.663300000000     0          
O        O      0.186100000000     0.159900000000     0.661300000000     0          
O        O      0.159550000000     0.152650000000     0.682900000000     0          
O        O      0.169600000000     0.100050000000     0.669100000000     0          
O        O      0.062900000000     0.042800000000     0.660300000000     0          
O        O      0.104400000000     0.060400000000     0.643000000000     0          
O        O      0.126650000000     0.051500000000     0.665100000000     0          
O        O      0.061200000000     0.207650000000     0.747500000000     0          
O        O      0.099450000000     0.187400000000     0.765500000000     0          
O        O      0.125850000000     0.202950000000     0.744400000000     0          
O        O      0.122950000000     0.099100000000     0.746200000000     0          
O        O      0.088550000000     0.122800000000     0.764600000000     0          
O        O      0.101100000000     0.058350000000     0.763300000000     0          
O        O      0.187200000000     0.090600000000     0.747100000000     0          
O        O      0.162950000000     0.149500000000     0.741500000000     0          
O        O      0.158150000000     0.099700000000     0.726000000000     0          
O        O      0.194200000000     0.059550000000     0.640800000000     0          
O        O      0.191400000000     0.040500000000     0.663600000000     0          
O        O      0.210100000000     0.207850000000     0.618700000000     0          
O        O      0.210600000000     0.188450000000     0.641600000000     0          
O        O      0.153900000000     0.201550000000     0.630800000000     0          
O        O      0.203200000000     0.095700000000     0.621400000000     0          
O        O      0.206850000000     0.123250000000     0.643000000000     0          
O        O      0.148800000000     0.103350000000     0.634600000000     0          
O        O      0.186900000000     0.204700000000     0.596400000000     0          
O        O      0.202550000000     0.149900000000     0.608000000000     0          
O        O      0.206150000000     0.037650000000     0.790000000000     0          
O        O      0.148950000000     0.048350000000     0.779000000000     0          
O        O      0.205250000000     0.062000000000     0.767700000000     0          
O        O      0.163800000000     0.051000000000     0.684800000000     0          
O        O      0.040350000000     0.047800000000     0.682700000000     0          
O        O      0.054200000000     0.061650000000     0.705700000000     0          
O        O      0.101650000000     0.041800000000     0.690900000000     0          
O        O      0.055650000000     0.190750000000     0.702000000000     0          
O        O      0.099450000000     0.149800000000     0.692300000000     0          
O        O      0.047750000000     0.126350000000     0.704200000000     0          
O        O      0.100350000000     0.210700000000     0.717900000000     0          
O        O      0.039550000000     0.197350000000     0.725200000000     0          
O        O      0.188550000000     0.092100000000     0.598200000000     0          
O        O      0.191200000000     0.207650000000     0.745000000000     0          
O        O      0.194900000000     0.190200000000     0.768000000000     0          
O        O      0.098900000000     0.100850000000     0.715900000000     0          
O        O      0.209450000000     0.127000000000     0.765400000000     0          
O        O      0.100950000000     0.189150000000     0.523100000000     0          
O        O      0.125050000000     0.147250000000     0.539300000000     0          
O        O      0.092100000000     0.124500000000     0.520400000000     0          
O        O      0.060900000000     0.157300000000     0.537700000000     0          
O        O      0.125150000000     0.104300000000     0.602100000000     0          
O        O      0.154100000000     0.124850000000     0.582000000000     0          
O        O      0.142900000000     0.060950000000     0.585400000000     0          
O        O      0.107400000000     0.188100000000     0.646800000000     0          
O        O      0.092050000000     0.124800000000     0.643500000000     0          
O        O      0.138450000000     0.188450000000     0.581400000000     0          
O        O      0.124900000000     0.203000000000     0.604200000000     0          
O        O      0.143750000000     0.190850000000     0.701500000000     0          
O        O      0.161000000000     0.195450000000     0.724400000000     0          
O        O      0.213900000000     0.188550000000     0.522300000000     0          
O        O      0.188600000000     0.160250000000     0.541700000000     0          
O        O      0.199700000000     0.124550000000     0.522100000000     0          
O        O      0.102350000000     0.059700000000     0.520700000000     0          
O        O      0.125850000000     0.052300000000     0.542900000000     0          
O        O      0.062300000000     0.042000000000     0.538500000000     0          
O        O      0.099050000000     0.151650000000     0.785600000000     0          
O        O      0.147950000000     0.145050000000     0.770000000000     0          
O        O      0.087400000000     0.052050000000     0.786600000000     0          
O        O      0.155950000000     0.190900000000     0.824700000000     0          
O        O      0.140750000000     0.195500000000     0.847900000000     0          
O        O      0.096950000000     0.211600000000     0.831100000000     0          
O        O      0.094500000000     0.060250000000     0.886100000000     0          
O        O      0.151100000000     0.051450000000     0.897700000000     0          
O        O      0.093800000000     0.040350000000     0.908700000000     0          
O        O      0.141250000000     0.061500000000     0.828700000000     0          
O        O      0.124050000000     0.046500000000     0.806200000000     0          
O        O      0.187100000000     0.045350000000     0.812700000000     0          
O        O      0.145200000000     0.061100000000     0.707300000000     0          
O        O      0.150400000000     0.126050000000     0.704400000000     0          
O        O      0.205400000000     0.099600000000     0.500100000000     0          
O        O      0.147250000000     0.099750000000     0.511200000000     0          
O        O      0.195200000000     0.060050000000     0.518600000000     0          
O        O      0.162250000000     0.050500000000     0.562800000000     0          
O        O      0.165500000000     0.102250000000     0.548400000000     0          
O        O      0.191100000000     0.044800000000     0.541700000000     0          
O        O      0.127750000000     0.156700000000     0.807000000000     0          
O        O      0.151600000000     0.125750000000     0.826200000000     0          
O        O      0.192550000000     0.153450000000     0.810600000000     0          
O        O      0.100000000000     0.041500000000     0.568800000000     0          
O        O      0.158700000000     0.097600000000     0.847500000000     0          
O        O      0.098900000000     0.104000000000     0.838000000000     0          
O        O      0.086600000000     0.187650000000     0.889800000000     0          
O        O      0.145050000000     0.164250000000     0.895200000000     0          
O        O      0.092600000000     0.144900000000     0.907800000000     0          
O        O      0.099950000000     0.125400000000     0.885000000000     0          
O        O      0.156600000000     0.199750000000     0.511400000000     0          
O        O      0.042300000000     0.156000000000     0.560600000000     0          
O        O      0.096150000000     0.143500000000     0.573400000000     0          
O        O      0.054050000000     0.189450000000     0.580700000000     0          
O        O      0.037550000000     0.126300000000     0.581900000000     0          
O        O      0.124850000000     0.201350000000     0.871000000000     0          
O        O      0.060550000000     0.214250000000     0.870100000000     0          
O        O      0.150650000000     0.156150000000     0.561100000000     0          
O        O      0.064000000000     0.092500000000     0.868800000000     0          
O        O      0.129050000000     0.088000000000     0.868500000000     0          
O        O      0.153200000000     0.188950000000     0.945100000000     0          
O        O      0.158400000000     0.204350000000     0.968100000000     0          
O        O      0.099400000000     0.201250000000     0.957800000000     0          
O        O      0.103550000000     0.062200000000     0.005300000000     0          
O        O      0.105200000000     0.126200000000     0.010600000000     0          
O        O      0.059600000000     0.101100000000     0.602500000000     0          
O        O      0.052950000000     0.062750000000     0.583400000000     0          
O        O      0.145000000000     0.058900000000     0.950600000000     0          
O        O      0.100350000000     0.098000000000     0.960900000000     0          
O        O      0.161000000000     0.095100000000     0.969500000000     0          
O        O      0.149400000000     0.124050000000     0.948400000000     0          
O        O      0.185550000000     0.209200000000     0.989600000000     0          
O        O      0.190400000000     0.148850000000     0.932200000000     0          
O        O      0.126050000000     0.151700000000     0.928200000000     0          
O        O      0.093600000000     0.093300000000     0.622600000000     0          
O        O      0.124450000000     0.035900000000     0.929600000000     0          
O        O      0.186950000000     0.054400000000     0.932200000000     0          
O        O      0.091350000000     0.207550000000     0.624600000000     0          
O        O      0.095000000000     0.191200000000     0.009300000000     0          
O        O      0.122350000000     0.194250000000     0.987700000000     0          
O        O      0.061000000000     0.213300000000     0.990500000000     0          
O        O      0.168200000000     0.150600000000     0.981400000000     0          
O        O      0.059650000000     0.046300000000     0.928900000000     0          
O        O      0.052950000000     0.059950000000     0.952100000000     0          
O        O      0.042950000000     0.094100000000     0.972200000000     0          
O        O      0.046850000000     0.125150000000     0.951200000000     0          
O        O      0.059200000000     0.205150000000     0.603800000000     0          
O        O      0.090150000000     0.152100000000     0.612200000000     0          
O        O      0.202100000000     0.188350000000     0.887100000000     0          
O        O      0.187700000000     0.202450000000     0.864500000000     0          
O        O      0.038500000000     0.045650000000     0.560800000000     0          
O        O      0.049850000000     0.100100000000     0.548400000000     0          
O        O      0.049200000000     0.154600000000     0.980700000000     0          
O        O      0.045650000000     0.188150000000     0.945000000000     0          
O        O      0.040550000000     0.208850000000     0.967700000000     0          
O        O      0.101200000000     0.093700000000     0.922300000000     0          
O        O      0.058850000000     0.049500000000     0.808000000000     0          
O        O      0.052150000000     0.061600000000     0.831200000000     0          
O        O      0.198300000000     0.162000000000     0.908900000000     0          
O        O      0.193650000000     0.123600000000     0.889700000000     0          
O        O      0.209300000000     0.060650000000     0.887200000000     0          
O        O      0.205700000000     0.039050000000     0.909900000000     0          
O        O      0.206650000000     0.101050000000     0.917000000000     0          
O        O      0.061350000000     0.142600000000     0.928800000000     0          
O        O      0.038400000000     0.189500000000     0.824200000000     0          
O        O      0.051450000000     0.197250000000     0.847400000000     0          
O        O      0.039200000000     0.108150000000     0.847300000000     0          
O        O      0.048800000000     0.124500000000     0.824600000000     0          
O        O      0.193450000000     0.096550000000     0.867900000000     0          
O        O      0.194100000000     0.150900000000     0.786900000000     0          
O        O      0.153600000000     0.146850000000     0.863200000000     0          
O        O      0.043200000000     0.153350000000     0.864700000000     0          
O        O      0.093500000000     0.102700000000     0.801500000000     0          
O        O      0.205750000000     0.097150000000     0.799700000000     0          
O        O      0.062550000000     0.159150000000     0.805100000000     0          
T        Si     0.037850000000     0.109300000000     0.739000000000     0          
T        Si     0.037750000000     0.139600000000     0.669400000000     0          
T        Si     0.159700000000     0.138850000000     0.669200000000     0          
T        Si     0.100200000000     0.038650000000     0.655200000000     0          
T        Si     0.096950000000     0.211900000000     0.754000000000     0          
T        Si     0.093300000000     0.091500000000     0.755600000000     0          
T        Si     0.157750000000     0.110000000000     0.740200000000     0          
T        Si     0.212600000000     0.038200000000     0.651200000000     0          
T        Si     0.192500000000     0.211850000000     0.631700000000     0          
T        Si     0.188050000000     0.095650000000     0.634900000000     0          
T        Si     0.212350000000     0.188300000000     0.605900000000     0          
T        Si     0.213000000000     0.156850000000     0.650600000000     0          
T        Si     0.187100000000     0.037300000000     0.777100000000     0          
T        Si     0.162600000000     0.060850000000     0.670600000000     0          
T        Si     0.062850000000     0.038000000000     0.694300000000     0          
T        Si     0.060700000000     0.155450000000     0.695300000000     0          
T        Si     0.061600000000     0.212000000000     0.714200000000     0          
T        Si     0.211300000000     0.110850000000     0.608200000000     0          
T        Si     0.212350000000     0.211550000000     0.757300000000     0          
T        Si     0.060050000000     0.096200000000     0.712800000000     0          
T        Si     0.212600000000     0.091950000000     0.758400000000     0          
T        Si     0.094950000000     0.154450000000     0.530000000000     0          
T        Si     0.152500000000     0.095500000000     0.591900000000     0          
T        Si     0.096200000000     0.154150000000     0.653300000000     0          
T        Si     0.148600000000     0.211450000000     0.592800000000     0          
T        Si     0.138850000000     0.211900000000     0.713800000000     0          
T        Si     0.212850000000     0.155000000000     0.530300000000     0          
T        Si     0.099450000000     0.038600000000     0.533100000000     0          
T        Si     0.108650000000     0.151900000000     0.771400000000     0          
T        Si     0.110950000000     0.039450000000     0.775700000000     0          
T        Si     0.135750000000     0.212050000000     0.834700000000     0          
T        Si     0.113600000000     0.038050000000     0.896000000000     0          
T        Si     0.149500000000     0.038450000000     0.817100000000     0          
T        Si     0.138150000000     0.096850000000     0.713400000000     0          
T        Si     0.186800000000     0.096100000000     0.513000000000     0          
T        Si     0.161000000000     0.062450000000     0.548900000000     0          
T        Si     0.156750000000     0.156700000000     0.817100000000     0          
T        Si     0.137750000000     0.038250000000     0.573500000000     0          
T        Si     0.137600000000     0.097300000000     0.835100000000     0          
T        Si     0.106100000000     0.155150000000     0.894600000000     0          
T        Si     0.211900000000     0.038800000000     0.529400000000     0          
T        Si     0.139550000000     0.038300000000     0.695500000000     0          
T        Si     0.194300000000     0.212600000000     0.513000000000     0          
T        Si     0.057500000000     0.153850000000     0.574200000000     0          
T        Si     0.092950000000     0.213050000000     0.878700000000     0          
T        Si     0.134850000000     0.153350000000     0.574500000000     0          
T        Si     0.096950000000     0.091900000000     0.877100000000     0          
T        Si     0.137800000000     0.211300000000     0.955800000000     0          
T        Si     0.037700000000     0.094100000000     0.590600000000     0          
T        Si     0.138950000000     0.094050000000     0.957200000000     0          
T        Si     0.154550000000     0.153150000000     0.938500000000     0          
T        Si     0.109750000000     0.095250000000     0.636000000000     0          
T        Si     0.155500000000     0.037500000000     0.938800000000     0          
T        Si     0.117500000000     0.211800000000     0.635600000000     0          
T        Si     0.118400000000     0.211250000000     0.512700000000     0          
T        Si     0.097050000000     0.212350000000     0.996900000000     0          
T        Si     0.158450000000     0.189450000000     0.981700000000     0          
T        Si     0.161550000000     0.111300000000     0.982800000000     0          
T        Si     0.038150000000     0.038950000000     0.940900000000     0          
T        Si     0.060800000000     0.094350000000     0.959100000000     0          
T        Si     0.091400000000     0.192000000000     0.611100000000     0          
T        Si     0.211700000000     0.211500000000     0.875700000000     0          
T        Si     0.037650000000     0.062000000000     0.547400000000     0          
T        Si     0.138300000000     0.154950000000     0.695300000000     0          
T        Si     0.108050000000     0.093500000000     0.513200000000     0          
T        Si     0.038300000000     0.138400000000     0.547600000000     0          
T        Si     0.038350000000     0.117100000000     0.984100000000     0          
T        Si     0.061450000000     0.211950000000     0.955300000000     0          
T        Si     0.094700000000     0.054200000000     0.922400000000     0          
T        Si     0.157200000000     0.141350000000     0.547700000000     0          
T        Si     0.039250000000     0.038650000000     0.820100000000     0          
T        Si     0.037950000000     0.193000000000     0.981100000000     0          
T        Si     0.184850000000     0.159650000000     0.895100000000     0          
T        Si     0.188700000000     0.037900000000     0.896600000000     0          
T        Si     0.211350000000     0.139900000000     0.920100000000     0          
T        Si     0.038550000000     0.150800000000     0.940400000000     0          
T        Si     0.095200000000     0.133250000000     0.921800000000     0          
T        Si     0.092250000000     0.112650000000     0.609800000000     0          
T        Si     0.057700000000     0.212200000000     0.834000000000     0          
T        Si     0.059850000000     0.099350000000     0.835200000000     0          
T        Si     0.211600000000     0.096850000000     0.881000000000     0          
T        Si     0.212150000000     0.063100000000     0.921300000000     0          
T        Si     0.186500000000     0.153150000000     0.772600000000     0          
T        Si     0.151750000000     0.186600000000     0.861600000000     0          
T        Si     0.036900000000     0.114650000000     0.861700000000     0          
T        Si     0.038550000000     0.191850000000     0.861000000000     0          
T        Si     0.090750000000     0.062850000000     0.800600000000     0          
T        Si     0.158800000000     0.107350000000     0.861700000000     0          
T        Si     0.212150000000     0.058250000000     0.802300000000     0          
T        Si     0.211000000000     0.136800000000     0.799200000000     0          
T        Si     0.096000000000     0.142400000000     0.799800000000     0          
T        Si     0.037950000000     0.062700000000     0.669200000000     0          
T        Si     0.038000000000     0.184700000000     0.739000000000     0          
T        Si     0.037500000000     0.155650000000     0.816400000000     0          
T        Si     0.160150000000     0.188750000000     0.738900000000     0          
T        Si     0.038250000000     0.211250000000     0.591600000000     0          
T        Si     0.061400000000     0.037650000000     0.572400000000     0          
O        O      0.146950000000     0.448550000000     0.260400000000     0          
O        O      0.095950000000     0.460900000000     0.274800000000     0          
O        O      0.085950000000     0.440150000000     0.252200000000     0          
O        O      0.154950000000     0.460150000000     0.317200000000     0          
O        O      0.160150000000     0.438650000000     0.339800000000     0          
O        O      0.101200000000     0.450850000000     0.330400000000     0          
O        O      0.143300000000     0.376700000000     0.336700000000     0          
O        O      0.159900000000     0.313900000000     0.338700000000     0          
O        O      0.152650000000     0.340450000000     0.317100000000     0          
O        O      0.100050000000     0.330400000000     0.330900000000     0          
O        O      0.042800000000     0.437100000000     0.339700000000     0          
O        O      0.060400000000     0.395600000000     0.357000000000     0          
O        O      0.051500000000     0.373350000000     0.334900000000     0          
O        O      0.207650000000     0.438800000000     0.252500000000     0          
O        O      0.187400000000     0.400550000000     0.234500000000     0          
O        O      0.202950000000     0.374150000000     0.255600000000     0          
O        O      0.099100000000     0.377050000000     0.253800000000     0          
O        O      0.122800000000     0.411450000000     0.235400000000     0          
O        O      0.058350000000     0.398900000000     0.236700000000     0          
O        O      0.090600000000     0.312800000000     0.252900000000     0          
O        O      0.149500000000     0.337050000000     0.258500000000     0          
O        O      0.099700000000     0.341850000000     0.274000000000     0          
O        O      0.059550000000     0.305800000000     0.359200000000     0          
O        O      0.040500000000     0.308600000000     0.336400000000     0          
O        O      0.207850000000     0.289900000000     0.381300000000     0          
O        O      0.188450000000     0.289400000000     0.358400000000     0          
O        O      0.201550000000     0.346100000000     0.369200000000     0          
O        O      0.095700000000     0.296800000000     0.378600000000     0          
O        O      0.123250000000     0.293150000000     0.357000000000     0          
O        O      0.103350000000     0.351200000000     0.365400000000     0          
O        O      0.204700000000     0.313100000000     0.403600000000     0          
O        O      0.149900000000     0.297450000000     0.392000000000     0          
O        O      0.037650000000     0.293850000000     0.210000000000     0          
O        O      0.048350000000     0.351050000000     0.221000000000     0          
O        O      0.062000000000     0.294750000000     0.232300000000     0          
O        O      0.051000000000     0.336200000000     0.315200000000     0          
O        O      0.047800000000     0.459650000000     0.317300000000     0          
O        O      0.061650000000     0.445800000000     0.294300000000     0          
O        O      0.041800000000     0.398350000000     0.309100000000     0          
O        O      0.190750000000     0.444350000000     0.298000000000     0          
O        O      0.149800000000     0.400550000000     0.307700000000     0          
O        O      0.126350000000     0.452250000000     0.295800000000     0          
O        O      0.210700000000     0.399650000000     0.282100000000     0          
O        O      0.197350000000     0.460450000000     0.274800000000     0          
O        O      0.092100000000     0.311450000000     0.401800000000     0          
O        O      0.207650000000     0.308800000000     0.255000000000     0          
O        O      0.190200000000     0.305100000000     0.232000000000     0          
O        O      0.100850000000     0.401100000000     0.284100000000     0          
O        O      0.127000000000     0.290550000000     0.234600000000     0          
O        O      0.189150000000     0.399050000000     0.476900000000     0          
O        O      0.147250000000     0.374950000000     0.460700000000     0          
O        O      0.124500000000     0.407900000000     0.479600000000     0          
O        O      0.157300000000     0.439100000000     0.462300000000     0          
O        O      0.104300000000     0.374850000000     0.397900000000     0          
O        O      0.124850000000     0.345900000000     0.418000000000     0          
O        O      0.060950000000     0.357100000000     0.414600000000     0          
O        O      0.188100000000     0.392600000000     0.353200000000     0          
O        O      0.124800000000     0.407950000000     0.356500000000     0          
O        O      0.188450000000     0.361550000000     0.418600000000     0          
O        O      0.203000000000     0.375100000000     0.395800000000     0          
O        O      0.190850000000     0.356250000000     0.298500000000     0          
O        O      0.195450000000     0.339000000000     0.275600000000     0          
O        O      0.188550000000     0.286100000000     0.477700000000     0          
O        O      0.160250000000     0.311400000000     0.458300000000     0          
O        O      0.124550000000     0.300300000000     0.477900000000     0          
O        O      0.059700000000     0.397650000000     0.479300000000     0          
O        O      0.052300000000     0.374150000000     0.457100000000     0          
O        O      0.042000000000     0.437700000000     0.461500000000     0          
O        O      0.151650000000     0.400950000000     0.214400000000     0          
O        O      0.145050000000     0.352050000000     0.230000000000     0          
O        O      0.052050000000     0.412600000000     0.213400000000     0          
O        O      0.190900000000     0.344050000000     0.175300000000     0          
O        O      0.195500000000     0.359250000000     0.152100000000     0          
O        O      0.211600000000     0.403050000000     0.168900000000     0          
O        O      0.060250000000     0.405500000000     0.113900000000     0          
O        O      0.051450000000     0.348900000000     0.102300000000     0          
O        O      0.040350000000     0.406200000000     0.091300000000     0          
O        O      0.061500000000     0.358750000000     0.171300000000     0          
O        O      0.046500000000     0.375950000000     0.193800000000     0          
O        O      0.045350000000     0.312900000000     0.187300000000     0          
O        O      0.061100000000     0.354800000000     0.292700000000     0          
O        O      0.126050000000     0.349600000000     0.295600000000     0          
O        O      0.099600000000     0.294600000000     0.499900000000     0          
O        O      0.099750000000     0.352750000000     0.488800000000     0          
O        O      0.060050000000     0.304800000000     0.481400000000     0          
O        O      0.050500000000     0.337750000000     0.437200000000     0          
O        O      0.102250000000     0.334500000000     0.451600000000     0          
O        O      0.044800000000     0.308900000000     0.458300000000     0          
O        O      0.156700000000     0.372250000000     0.193000000000     0          
O        O      0.125750000000     0.348400000000     0.173800000000     0          
O        O      0.153450000000     0.307450000000     0.189400000000     0          
O        O      0.041500000000     0.400000000000     0.431200000000     0          
O        O      0.097600000000     0.341300000000     0.152500000000     0          
O        O      0.104000000000     0.401100000000     0.162000000000     0          
O        O      0.187650000000     0.413400000000     0.110200000000     0          
O        O      0.164250000000     0.354950000000     0.104800000000     0          
O        O      0.144900000000     0.407400000000     0.092200000000     0          
O        O      0.125400000000     0.400050000000     0.115000000000     0          
O        O      0.199750000000     0.343400000000     0.488600000000     0          
O        O      0.156000000000     0.457700000000     0.439400000000     0          
O        O      0.143500000000     0.403850000000     0.426600000000     0          
O        O      0.189450000000     0.445950000000     0.419300000000     0          
O        O      0.126300000000     0.462450000000     0.418100000000     0          
O        O      0.201350000000     0.375150000000     0.129000000000     0          
O        O      0.214250000000     0.439450000000     0.129900000000     0          
O        O      0.156150000000     0.349350000000     0.438900000000     0          
O        O      0.092500000000     0.436000000000     0.131200000000     0          
O        O      0.088000000000     0.370950000000     0.131500000000     0          
O        O      0.188950000000     0.346800000000     0.054900000000     0          
O        O      0.204350000000     0.341600000000     0.031900000000     0          
O        O      0.201250000000     0.400600000000     0.042200000000     0          
O        O      0.062200000000     0.396450000000     0.994700000000     0          
O        O      0.126200000000     0.394800000000     0.989400000000     0          
O        O      0.101100000000     0.440400000000     0.397500000000     0          
O        O      0.062750000000     0.447050000000     0.416600000000     0          
O        O      0.058900000000     0.355000000000     0.049400000000     0          
O        O      0.098000000000     0.399650000000     0.039100000000     0          
O        O      0.095100000000     0.339000000000     0.030500000000     0          
O        O      0.124050000000     0.350600000000     0.051600000000     0          
O        O      0.209200000000     0.314450000000     0.010400000000     0          
O        O      0.148850000000     0.309600000000     0.067800000000     0          
O        O      0.151700000000     0.373950000000     0.071800000000     0          
O        O      0.093300000000     0.406400000000     0.377400000000     0          
O        O      0.035900000000     0.375550000000     0.070400000000     0          
O        O      0.054400000000     0.313050000000     0.067800000000     0          
O        O      0.207550000000     0.408650000000     0.375400000000     0          
O        O      0.191200000000     0.405000000000     0.990700000000     0          
O        O      0.194250000000     0.377650000000     0.012300000000     0          
O        O      0.213300000000     0.439000000000     0.009500000000     0          
O        O      0.150600000000     0.331800000000     0.018600000000     0          
O        O      0.046300000000     0.440350000000     0.071100000000     0          
O        O      0.059950000000     0.447050000000     0.047900000000     0          
O        O      0.094100000000     0.457050000000     0.027800000000     0          
O        O      0.125150000000     0.453150000000     0.048800000000     0          
O        O      0.205150000000     0.440800000000     0.396200000000     0          
O        O      0.152100000000     0.409850000000     0.387800000000     0          
O        O      0.188350000000     0.297900000000     0.112900000000     0          
O        O      0.202450000000     0.312300000000     0.135500000000     0          
O        O      0.045650000000     0.461500000000     0.439200000000     0          
O        O      0.100100000000     0.450150000000     0.451600000000     0          
O        O      0.154600000000     0.450800000000     0.019300000000     0          
O        O      0.188150000000     0.454350000000     0.055000000000     0          
O        O      0.208850000000     0.459450000000     0.032300000000     0          
O        O      0.093700000000     0.398800000000     0.077700000000     0          
O        O      0.049500000000     0.441150000000     0.192000000000     0          
O        O      0.061600000000     0.447850000000     0.168800000000     0          
O        O      0.162000000000     0.301700000000     0.091100000000     0          
O        O      0.123600000000     0.306350000000     0.110300000000     0          
O        O      0.060650000000     0.290700000000     0.112800000000     0          
O        O      0.039050000000     0.294300000000     0.090100000000     0          
O        O      0.101050000000     0.293350000000     0.083000000000     0          
O        O      0.142600000000     0.438650000000     0.071200000000     0          
O        O      0.189500000000     0.461600000000     0.175800000000     0          
O        O      0.197250000000     0.448550000000     0.152600000000     0          
O        O      0.108150000000     0.460800000000     0.152700000000     0          
O        O      0.124500000000     0.451200000000     0.175400000000     0          
O        O      0.096550000000     0.306550000000     0.132100000000     0          
O        O      0.150900000000     0.305900000000     0.213100000000     0          
O        O      0.146850000000     0.346400000000     0.136800000000     0          
O        O      0.153350000000     0.456800000000     0.135300000000     0          
O        O      0.102700000000     0.406500000000     0.198500000000     0          
O        O      0.097150000000     0.294250000000     0.200300000000     0          
O        O      0.159150000000     0.437450000000     0.194900000000     0          
T        Si     0.109300000000     0.462150000000     0.261000000000     0          
T        Si     0.139600000000     0.462250000000     0.330600000000     0          
T        Si     0.138850000000     0.340300000000     0.330800000000     0          
T        Si     0.038650000000     0.399800000000     0.344800000000     0          
T        Si     0.211900000000     0.403050000000     0.246000000000     0          
T        Si     0.091500000000     0.406700000000     0.244400000000     0          
T        Si     0.110000000000     0.342250000000     0.259800000000     0          
T        Si     0.038200000000     0.287400000000     0.348800000000     0          
T        Si     0.211850000000     0.307500000000     0.368300000000     0          
T        Si     0.095650000000     0.311950000000     0.365100000000     0          
T        Si     0.188300000000     0.287650000000     0.394100000000     0          
T        Si     0.156850000000     0.287000000000     0.349400000000     0          
T        Si     0.037300000000     0.312900000000     0.222900000000     0          
T        Si     0.060850000000     0.337400000000     0.329400000000     0          
T        Si     0.038000000000     0.437150000000     0.305700000000     0          
T        Si     0.155450000000     0.439300000000     0.304700000000     0          
T        Si     0.212000000000     0.438400000000     0.285800000000     0          
T        Si     0.110850000000     0.288700000000     0.391800000000     0          
T        Si     0.211550000000     0.287650000000     0.242700000000     0          
T        Si     0.096200000000     0.439950000000     0.287200000000     0          
T        Si     0.091950000000     0.287400000000     0.241600000000     0          
T        Si     0.154450000000     0.405050000000     0.470000000000     0          
T        Si     0.095500000000     0.347500000000     0.408100000000     0          
T        Si     0.154150000000     0.403800000000     0.346700000000     0          
T        Si     0.211450000000     0.351400000000     0.407200000000     0          
T        Si     0.211900000000     0.361150000000     0.286200000000     0          
T        Si     0.155000000000     0.287150000000     0.469700000000     0          
T        Si     0.038600000000     0.400550000000     0.466900000000     0          
T        Si     0.151900000000     0.391350000000     0.228600000000     0          
T        Si     0.039450000000     0.389050000000     0.224300000000     0          
T        Si     0.212050000000     0.364250000000     0.165300000000     0          
T        Si     0.038050000000     0.386400000000     0.104000000000     0          
T        Si     0.038450000000     0.350500000000     0.182900000000     0          
T        Si     0.096850000000     0.361850000000     0.286600000000     0          
T        Si     0.096100000000     0.313200000000     0.487000000000     0          
T        Si     0.062450000000     0.339000000000     0.451100000000     0          
T        Si     0.156700000000     0.343250000000     0.182900000000     0          
T        Si     0.038250000000     0.362250000000     0.426500000000     0          
T        Si     0.097300000000     0.362400000000     0.164900000000     0          
T        Si     0.155150000000     0.393900000000     0.105400000000     0          
T        Si     0.038800000000     0.288100000000     0.470600000000     0          
T        Si     0.038300000000     0.360450000000     0.304500000000     0          
T        Si     0.212600000000     0.305700000000     0.487000000000     0          
T        Si     0.153850000000     0.442500000000     0.425800000000     0          
T        Si     0.213050000000     0.407050000000     0.121300000000     0          
T        Si     0.153350000000     0.365150000000     0.425500000000     0          
T        Si     0.091900000000     0.403050000000     0.122900000000     0          
T        Si     0.211300000000     0.362200000000     0.044200000000     0          
T        Si     0.094100000000     0.462300000000     0.409400000000     0          
T        Si     0.094050000000     0.361050000000     0.042800000000     0          
T        Si     0.153150000000     0.345450000000     0.061500000000     0          
T        Si     0.095250000000     0.390250000000     0.364000000000     0          
T        Si     0.037500000000     0.344500000000     0.061200000000     0          
T        Si     0.211800000000     0.382500000000     0.364400000000     0          
T        Si     0.211250000000     0.381600000000     0.487300000000     0          
T        Si     0.212350000000     0.402950000000     0.003100000000     0          
T        Si     0.189450000000     0.341550000000     0.018300000000     0          
T        Si     0.111300000000     0.338450000000     0.017200000000     0          
T        Si     0.038950000000     0.461850000000     0.059100000000     0          
T        Si     0.094350000000     0.439200000000     0.040900000000     0          
T        Si     0.192000000000     0.408600000000     0.388900000000     0          
T        Si     0.211500000000     0.288300000000     0.124300000000     0          
T        Si     0.062000000000     0.462350000000     0.452600000000     0          
T        Si     0.154950000000     0.361700000000     0.304700000000     0          
T        Si     0.093500000000     0.391950000000     0.486800000000     0          
T        Si     0.138400000000     0.461700000000     0.452400000000     0          
T        Si     0.117100000000     0.461650000000     0.015900000000     0          
T        Si     0.211950000000     0.438550000000     0.044700000000     0          
T        Si     0.054200000000     0.405300000000     0.077600000000     0          
T        Si     0.141350000000     0.342800000000     0.452300000000     0          
T        Si     0.038650000000     0.460750000000     0.179900000000     0          
T        Si     0.193000000000     0.462050000000     0.018900000000     0          
T        Si     0.159650000000     0.315150000000     0.104900000000     0          
T        Si     0.037900000000     0.311300000000     0.103400000000     0          
T        Si     0.139900000000     0.288650000000     0.079900000000     0          
T        Si     0.150800000000     0.461450000000     0.059600000000     0          
T        Si     0.133250000000     0.404800000000     0.078200000000     0          
T        Si     0.112650000000     0.407750000000     0.390200000000     0          
T        Si     0.212200000000     0.442300000000     0.166000000000     0          
T        Si     0.099350000000     0.440150000000     0.164800000000     0          
T        Si     0.096850000000     0.288400000000     0.119000000000     0          
T        Si     0.063100000000     0.287850000000     0.078700000000     0          
T        Si     0.153150000000     0.313500000000     0.227400000000     0          
T        Si     0.186600000000     0.348250000000     0.138400000000     0          
T        Si     0.114650000000     0.463100000000     0.138300000000     0          
T        Si     0.191850000000     0.461450000000     0.139000000000     0          
T        Si     0.062850000000     0.409250000000     0.199400000000     0          
T        Si     0.107350000000     0.341200000000     0.138300000000     0          
T        Si     0.058250000000     0.287850000000     0.197700000000     0          
T        Si     0.136800000000     0.289000000000     0.200800000000     0          
T        Si     0.142400000000     0.404000000000     0.200200000000     0          
T        Si     0.062700000000     0.462050000000     0.330800000000     0          
T        Si     0.184700000000     0.462000000000     0.261000000000     0          
T        Si     0.155650000000     0.462500000000     0.183600000000     0          
T        Si     0.188750000000     0.339850000000     0.261100000000     0          
T        Si     0.211250000000     0.461750000000     0.408400000000     0          
T        Si     0.037650000000     0.438600000000     0.427600000000     0          
O        O      0.448550000000     0.353050000000     0.739600000000     0          
O        O      0.460900000000     0.404050000000     0.725200000000     0          
O        O      0.440150000000     0.414050000000     0.747800000000     0          
O        O      0.460150000000     0.345050000000     0.682800000000     0          
O        O      0.438650000000     0.339850000000     0.660200000000     0          
O        O      0.450850000000     0.398800000000     0.669600000000     0          
O        O      0.376700000000     0.356700000000     0.663300000000     0          
O        O      0.313900000000     0.340100000000     0.661300000000     0          
O        O      0.340450000000     0.347350000000     0.682900000000     0          
O        O      0.330400000000     0.399950000000     0.669100000000     0          
O        O      0.437100000000     0.457200000000     0.660300000000     0          
O        O      0.395600000000     0.439600000000     0.643000000000     0          
O        O      0.373350000000     0.448500000000     0.665100000000     0          
O        O      0.438800000000     0.292350000000     0.747500000000     0          
O        O      0.400550000000     0.312600000000     0.765500000000     0          
O        O      0.374150000000     0.297050000000     0.744400000000     0          
O        O      0.377050000000     0.400900000000     0.746200000000     0          
O        O      0.411450000000     0.377200000000     0.764600000000     0          
O        O      0.398900000000     0.441650000000     0.763300000000     0          
O        O      0.312800000000     0.409400000000     0.747100000000     0          
O        O      0.337050000000     0.350500000000     0.741500000000     0          
O        O      0.341850000000     0.400300000000     0.726000000000     0          
O        O      0.305800000000     0.440450000000     0.640800000000     0          
O        O      0.308600000000     0.459500000000     0.663600000000     0          
O        O      0.289900000000     0.292150000000     0.618700000000     0          
O        O      0.289400000000     0.311550000000     0.641600000000     0          
O        O      0.346100000000     0.298450000000     0.630800000000     0          
O        O      0.296800000000     0.404300000000     0.621400000000     0          
O        O      0.293150000000     0.376750000000     0.643000000000     0          
O        O      0.351200000000     0.396650000000     0.634600000000     0          
O        O      0.313100000000     0.295300000000     0.596400000000     0          
O        O      0.297450000000     0.350100000000     0.608000000000     0          
O        O      0.293850000000     0.462350000000     0.790000000000     0          
O        O      0.351050000000     0.451650000000     0.779000000000     0          
O        O      0.294750000000     0.438000000000     0.767700000000     0          
O        O      0.336200000000     0.449000000000     0.684800000000     0          
O        O      0.459650000000     0.452200000000     0.682700000000     0          
O        O      0.445800000000     0.438350000000     0.705700000000     0          
O        O      0.398350000000     0.458200000000     0.690900000000     0          
O        O      0.444350000000     0.309250000000     0.702000000000     0          
O        O      0.400550000000     0.350200000000     0.692300000000     0          
O        O      0.452250000000     0.373650000000     0.704200000000     0          
O        O      0.399650000000     0.289300000000     0.717900000000     0          
O        O      0.460450000000     0.302650000000     0.725200000000     0          
O        O      0.311450000000     0.407900000000     0.598200000000     0          
O        O      0.308800000000     0.292350000000     0.745000000000     0          
O        O      0.305100000000     0.309800000000     0.768000000000     0          
O        O      0.401100000000     0.399150000000     0.715900000000     0          
O        O      0.290550000000     0.373000000000     0.765400000000     0          
O        O      0.399050000000     0.310850000000     0.523100000000     0          
O        O      0.374950000000     0.352750000000     0.539300000000     0          
O        O      0.407900000000     0.375500000000     0.520400000000     0          
O        O      0.439100000000     0.342700000000     0.537700000000     0          
O        O      0.374850000000     0.395700000000     0.602100000000     0          
O        O      0.345900000000     0.375150000000     0.582000000000     0          
O        O      0.357100000000     0.439050000000     0.585400000000     0          
O        O      0.392600000000     0.311900000000     0.646800000000     0          
O        O      0.407950000000     0.375200000000     0.643500000000     0          
O        O      0.361550000000     0.311550000000     0.581400000000     0          
O        O      0.375100000000     0.297000000000     0.604200000000     0          
O        O      0.356250000000     0.309150000000     0.701500000000     0          
O        O      0.339000000000     0.304550000000     0.724400000000     0          
O        O      0.286100000000     0.311450000000     0.522300000000     0          
O        O      0.311400000000     0.339750000000     0.541700000000     0          
O        O      0.300300000000     0.375450000000     0.522100000000     0          
O        O      0.397650000000     0.440300000000     0.520700000000     0          
O        O      0.374150000000     0.447700000000     0.542900000000     0          
O        O      0.437700000000     0.458000000000     0.538500000000     0          
O        O      0.400950000000     0.348350000000     0.785600000000     0          
O        O      0.352050000000     0.354950000000     0.770000000000     0          
O        O      0.412600000000     0.447950000000     0.786600000000     0          
O        O      0.344050000000     0.309100000000     0.824700000000     0          
O        O      0.359250000000     0.304500000000     0.847900000000     0          
O        O      0.403050000000     0.288400000000     0.831100000000     0          
O        O      0.405500000000     0.439750000000     0.886100000000     0          
O        O      0.348900000000     0.448550000000     0.897700000000     0          
O        O      0.406200000000     0.459650000000     0.908700000000     0          
O        O      0.358750000000     0.438500000000     0.828700000000     0          
O        O      0.375950000000     0.453500000000     0.806200000000     0          
O        O      0.312900000000     0.454650000000     0.812700000000     0          
O        O      0.354800000000     0.438900000000     0.707300000000     0          
O        O      0.349600000000     0.373950000000     0.704400000000     0          
O        O      0.294600000000     0.400400000000     0.500100000000     0          
O        O      0.352750000000     0.400250000000     0.511200000000     0          
O        O      0.304800000000     0.439950000000     0.518600000000     0          
O        O      0.337750000000     0.449500000000     0.562800000000     0          
O        O      0.334500000000     0.397750000000     0.548400000000     0          
O        O      0.308900000000     0.455200000000     0.541700000000     0          
O        O      0.372250000000     0.343300000000     0.807000000000     0          
O        O      0.348400000000     0.374250000000     0.826200000000     0          
O        O      0.307450000000     0.346550000000     0.810600000000     0          
O        O      0.400000000000     0.458500000000     0.568800000000     0          
O        O      0.341300000000     0.402400000000     0.847500000000     0          
O        O      0.401100000000     0.396000000000     0.838000000000     0          
O        O      0.413400000000     0.312350000000     0.889800000000     0          
O        O      0.354950000000     0.335750000000     0.895200000000     0          
O        O      0.407400000000     0.355100000000     0.907800000000     0          
O        O      0.400050000000     0.374600000000     0.885000000000     0          
O        O      0.343400000000     0.300250000000     0.511400000000     0          
O        O      0.457700000000     0.344000000000     0.560600000000     0          
O        O      0.403850000000     0.356500000000     0.573400000000     0          
O        O      0.445950000000     0.310550000000     0.580700000000     0          
O        O      0.462450000000     0.373700000000     0.581900000000     0          
O        O      0.375150000000     0.298650000000     0.871000000000     0          
O        O      0.439450000000     0.285750000000     0.870100000000     0          
O        O      0.349350000000     0.343850000000     0.561100000000     0          
O        O      0.436000000000     0.407500000000     0.868800000000     0          
O        O      0.370950000000     0.412000000000     0.868500000000     0          
O        O      0.346800000000     0.311050000000     0.945100000000     0          
O        O      0.341600000000     0.295650000000     0.968100000000     0          
O        O      0.400600000000     0.298750000000     0.957800000000     0          
O        O      0.396450000000     0.437800000000     0.005300000000     0          
O        O      0.394800000000     0.373800000000     0.010600000000     0          
O        O      0.440400000000     0.398900000000     0.602500000000     0          
O        O      0.447050000000     0.437250000000     0.583400000000     0          
O        O      0.355000000000     0.441100000000     0.950600000000     0          
O        O      0.399650000000     0.402000000000     0.960900000000     0          
O        O      0.339000000000     0.404900000000     0.969500000000     0          
O        O      0.350600000000     0.375950000000     0.948400000000     0          
O        O      0.314450000000     0.290800000000     0.989600000000     0          
O        O      0.309600000000     0.351150000000     0.932200000000     0          
O        O      0.373950000000     0.348300000000     0.928200000000     0          
O        O      0.406400000000     0.406700000000     0.622600000000     0          
O        O      0.375550000000     0.464100000000     0.929600000000     0          
O        O      0.313050000000     0.445600000000     0.932200000000     0          
O        O      0.408650000000     0.292450000000     0.624600000000     0          
O        O      0.405000000000     0.308800000000     0.009300000000     0          
O        O      0.377650000000     0.305750000000     0.987700000000     0          
O        O      0.439000000000     0.286700000000     0.990500000000     0          
O        O      0.331800000000     0.349400000000     0.981400000000     0          
O        O      0.440350000000     0.453700000000     0.928900000000     0          
O        O      0.447050000000     0.440050000000     0.952100000000     0          
O        O      0.457050000000     0.405900000000     0.972200000000     0          
O        O      0.453150000000     0.374850000000     0.951200000000     0          
O        O      0.440800000000     0.294850000000     0.603800000000     0          
O        O      0.409850000000     0.347900000000     0.612200000000     0          
O        O      0.297900000000     0.311650000000     0.887100000000     0          
O        O      0.312300000000     0.297550000000     0.864500000000     0          
O        O      0.461500000000     0.454350000000     0.560800000000     0          
O        O      0.450150000000     0.399900000000     0.548400000000     0          
O        O      0.450800000000     0.345400000000     0.980700000000     0          
O        O      0.454350000000     0.311850000000     0.945000000000     0          
O        O      0.459450000000     0.291150000000     0.967700000000     0          
O        O      0.398800000000     0.406300000000     0.922300000000     0          
O        O      0.441150000000     0.450500000000     0.808000000000     0          
O        O      0.447850000000     0.438400000000     0.831200000000     0          
O        O      0.301700000000     0.338000000000     0.908900000000     0          
O        O      0.306350000000     0.376400000000     0.889700000000     0          
O        O      0.290700000000     0.439350000000     0.887200000000     0          
O        O      0.294300000000     0.460950000000     0.909900000000     0          
O        O      0.293350000000     0.398950000000     0.917000000000     0          
O        O      0.438650000000     0.357400000000     0.928800000000     0          
O        O      0.461600000000     0.310500000000     0.824200000000     0          
O        O      0.448550000000     0.302750000000     0.847400000000     0          
O        O      0.460800000000     0.391850000000     0.847300000000     0          
O        O      0.451200000000     0.375500000000     0.824600000000     0          
O        O      0.306550000000     0.403450000000     0.867900000000     0          
O        O      0.305900000000     0.349100000000     0.786900000000     0          
O        O      0.346400000000     0.353150000000     0.863200000000     0          
O        O      0.456800000000     0.346650000000     0.864700000000     0          
O        O      0.406500000000     0.397300000000     0.801500000000     0          
O        O      0.294250000000     0.402850000000     0.799700000000     0          
O        O      0.437450000000     0.340850000000     0.805100000000     0          
T        Si     0.462150000000     0.390700000000     0.739000000000     0          
T        Si     0.462250000000     0.360400000000     0.669400000000     0          
T        Si     0.340300000000     0.361150000000     0.669200000000     0          
T        Si     0.399800000000     0.461350000000     0.655200000000     0          
T        Si     0.403050000000     0.288100000000     0.754000000000     0          
T        Si     0.406700000000     0.408500000000     0.755600000000     0          
T        Si     0.342250000000     0.390000000000     0.740200000000     0          
T        Si     0.287400000000     0.461800000000     0.651200000000     0          
T        Si     0.307500000000     0.288150000000     0.631700000000     0          
T        Si     0.311950000000     0.404350000000     0.634900000000     0          
T        Si     0.287650000000     0.311700000000     0.605900000000     0          
T        Si     0.287000000000     0.343150000000     0.650600000000     0          
T        Si     0.312900000000     0.462700000000     0.777100000000     0          
T        Si     0.337400000000     0.439150000000     0.670600000000     0          
T        Si     0.437150000000     0.462000000000     0.694300000000     0          
T        Si     0.439300000000     0.344550000000     0.695300000000     0          
T        Si     0.438400000000     0.288000000000     0.714200000000     0          
T        Si     0.288700000000     0.389150000000     0.608200000000     0          
T        Si     0.287650000000     0.288450000000     0.757300000000     0          
T        Si     0.439950000000     0.403800000000     0.712800000000     0          
T        Si     0.287400000000     0.408050000000     0.758400000000     0          
T        Si     0.405050000000     0.345550000000     0.530000000000     0          
T        Si     0.347500000000     0.404500000000     0.591900000000     0          
T        Si     0.403800000000     0.345850000000     0.653300000000     0          
T        Si     0.351400000000     0.288550000000     0.592800000000     0          
T        Si     0.361150000000     0.288100000000     0.713800000000     0          
T        Si     0.287150000000     0.345000000000     0.530300000000     0          
T        Si     0.400550000000     0.461400000000     0.533100000000     0          
T        Si     0.391350000000     0.348100000000     0.771400000000     0          
T        Si     0.389050000000     0.460550000000     0.775700000000     0          
T        Si     0.364250000000     0.287950000000     0.834700000000     0          
T        Si     0.386400000000     0.461950000000     0.896000000000     0          
T        Si     0.350500000000     0.461550000000     0.817100000000     0          
T        Si     0.361850000000     0.403150000000     0.713400000000     0          
T        Si     0.313200000000     0.403900000000     0.513000000000     0          
T        Si     0.339000000000     0.437550000000     0.548900000000     0          
T        Si     0.343250000000     0.343300000000     0.817100000000     0          
T        Si     0.362250000000     0.461750000000     0.573500000000     0          
T        Si     0.362400000000     0.402700000000     0.835100000000     0          
T        Si     0.393900000000     0.344850000000     0.894600000000     0          
T        Si     0.288100000000     0.461200000000     0.529400000000     0          
T        Si     0.360450000000     0.461700000000     0.695500000000     0          
T        Si     0.305700000000     0.287400000000     0.513000000000     0          
T        Si     0.442500000000     0.346150000000     0.574200000000     0          
T        Si     0.407050000000     0.286950000000     0.878700000000     0          
T        Si     0.365150000000     0.346650000000     0.574500000000     0          
T        Si     0.403050000000     0.408100000000     0.877100000000     0          
T        Si     0.362200000000     0.288700000000     0.955800000000     0          
T        Si     0.462300000000     0.405900000000     0.590600000000     0          
T        Si     0.361050000000     0.405950000000     0.957200000000     0          
T        Si     0.345450000000     0.346850000000     0.938500000000     0          
T        Si     0.390250000000     0.404750000000     0.636000000000     0          
T        Si     0.344500000000     0.462500000000     0.938800000000     0          
T        Si     0.382500000000     0.288200000000     0.635600000000     0          
T        Si     0.381600000000     0.288750000000     0.512700000000     0          
T        Si     0.402950000000     0.287650000000     0.996900000000     0          
T        Si     0.341550000000     0.310550000000     0.981700000000     0          
T        Si     0.338450000000     0.388700000000     0.982800000000     0          
T        Si     0.461850000000     0.461050000000     0.940900000000     0          
T        Si     0.439200000000     0.405650000000     0.959100000000     0          
T        Si     0.408600000000     0.308000000000     0.611100000000     0          
T        Si     0.288300000000     0.288500000000     0.875700000000     0          
T        Si     0.462350000000     0.438000000000     0.547400000000     0          
T        Si     0.361700000000     0.345050000000     0.695300000000     0          
T        Si     0.391950000000     0.406500000000     0.513200000000     0          
T        Si     0.461700000000     0.361600000000     0.547600000000     0          
T        Si     0.461650000000     0.382900000000     0.984100000000     0          
T        Si     0.438550000000     0.288050000000     0.955300000000     0          
T        Si     0.405300000000     0.445800000000     0.922400000000     0          
T        Si     0.342800000000     0.358650000000     0.547700000000     0          
T        Si     0.460750000000     0.461350000000     0.820100000000     0          
T        Si     0.462050000000     0.307000000000     0.981100000000     0          
T        Si     0.315150000000     0.340350000000     0.895100000000     0          
T        Si     0.311300000000     0.462100000000     0.896600000000     0          
T        Si     0.288650000000     0.360100000000     0.920100000000     0          
T        Si     0.461450000000     0.349200000000     0.940400000000     0          
T        Si     0.404800000000     0.366750000000     0.921800000000     0          
T        Si     0.407750000000     0.387350000000     0.609800000000     0          
T        Si     0.442300000000     0.287800000000     0.834000000000     0          
T        Si     0.440150000000     0.400650000000     0.835200000000     0          
T        Si     0.288400000000     0.403150000000     0.881000000000     0          
T        Si     0.287850000000     0.436900000000     0.921300000000     0          
T        Si     0.313500000000     0.346850000000     0.772600000000     0          
T        Si     0.348250000000     0.313400000000     0.861600000000     0          
T        Si     0.463100000000     0.385350000000     0.861700000000     0          
T        Si     0.461450000000     0.308150000000     0.861000000000     0          
T        Si     0.409250000000     0.437150000000     0.800600000000     0          
T        Si     0.341200000000     0.392650000000     0.861700000000     0          
T        Si     0.287850000000     0.441750000000     0.802300000000     0          
T        Si     0.289000000000     0.363200000000     0.799200000000     0          
T        Si     0.404000000000     0.357600000000     0.799800000000     0          
T        Si     0.462050000000     0.437300000000     0.669200000000     0          
T        Si     0.462000000000     0.315300000000     0.739000000000     0          
T        Si     0.462500000000     0.344350000000     0.816400000000     0          
T        Si     0.339850000000     0.311250000000     0.738900000000     0          
T        Si     0.461750000000     0.288750000000     0.591600000000     0          
T        Si     0.438600000000     0.462350000000     0.572400000000     0          
O        O      0.146950000000     0.551450000000     0.260400000000     0          
O        O      0.095950000000     0.539100000000     0.274800000000     0          
O        O      0.108700000000     0.500000000000     0.256200000000     0          
O        O      0.085950000000     0.559850000000     0.252200000000     0          
O        O      0.154950000000     0.539850000000     0.317200000000     0          
O        O      0.160150000000     0.561350000000     0.339800000000     0          
O        O      0.141850000000     0.500000000000     0.335500000000     0          
O        O      0.101200000000     0.549150000000     0.330400000000     0          
O        O      0.143300000000     0.623300000000     0.336700000000     0          
O        O      0.159900000000     0.686100000000     0.338700000000     0          
O        O      0.152650000000     0.659550000000     0.317100000000     0          
O        O      0.100050000000     0.669600000000     0.330900000000     0          
O        O      0.042800000000     0.562900000000     0.339700000000     0          
O        O      0.000000000000     0.607000000000     0.347800000000     0          
O        O      0.060400000000     0.604400000000     0.357000000000     0          
O        O      0.051500000000     0.626650000000     0.334900000000     0          
O        O      0.207650000000     0.561200000000     0.252500000000     0          
O        O      0.250000000000     0.601150000000     0.241700000000     0          
O        O      0.187400000000     0.599450000000     0.234500000000     0          
O        O      0.202950000000     0.625850000000     0.255600000000     0          
O        O      0.099100000000     0.622950000000     0.253800000000     0          
O        O      0.122800000000     0.588550000000     0.235400000000     0          
O        O      0.058350000000     0.601100000000     0.236700000000     0          
O        O      0.090600000000     0.687200000000     0.252900000000     0          
O        O      0.149500000000     0.662950000000     0.258500000000     0          
O        O      0.099700000000     0.658150000000     0.274000000000     0          
O        O      0.051450000000     0.750000000000     0.346700000000     0          
O        O      0.059550000000     0.694200000000     0.359200000000     0          
O        O      0.000000000000     0.714200000000     0.353200000000     0          
O        O      0.040500000000     0.691400000000     0.336400000000     0          
O        O      0.250000000000     0.695150000000     0.363900000000     0          
O        O      0.207850000000     0.710100000000     0.381300000000     0          
O        O      0.188450000000     0.710600000000     0.358400000000     0          
O        O      0.201550000000     0.653900000000     0.369200000000     0          
O        O      0.095700000000     0.703200000000     0.378600000000     0          
O        O      0.123250000000     0.706850000000     0.357000000000     0          
O        O      0.103350000000     0.648800000000     0.365400000000     0          
O        O      0.190550000000     0.750000000000     0.399000000000     0          
O        O      0.204700000000     0.686900000000     0.403600000000     0          
O        O      0.149900000000     0.702550000000     0.392000000000     0          
O        O      0.155750000000     0.750000000000     0.343800000000     0          
O        O      0.000000000000     0.687900000000     0.228200000000     0          
O        O      0.037650000000     0.706150000000     0.210000000000     0          
O        O      0.048350000000     0.648950000000     0.221000000000     0          
O        O      0.062000000000     0.705250000000     0.232300000000     0          
O        O      0.051000000000     0.663800000000     0.315200000000     0          
O        O      0.000000000000     0.555350000000     0.302000000000     0          
O        O      0.047800000000     0.540350000000     0.317300000000     0          
O        O      0.061650000000     0.554200000000     0.294300000000     0          
O        O      0.041800000000     0.601650000000     0.309100000000     0          
O        O      0.190750000000     0.555650000000     0.298000000000     0          
O        O      0.149800000000     0.599450000000     0.307700000000     0          
O        O      0.126350000000     0.547750000000     0.295800000000     0          
O        O      0.250000000000     0.550900000000     0.288300000000     0          
O        O      0.210700000000     0.600350000000     0.282100000000     0          
O        O      0.197350000000     0.539550000000     0.274800000000     0          
O        O      0.105400000000     0.750000000000     0.395100000000     0          
O        O      0.092100000000     0.688550000000     0.401800000000     0          
O        O      0.198950000000     0.750000000000     0.244700000000     0          
O        O      0.207650000000     0.691200000000     0.255000000000     0          
O        O      0.190200000000     0.694900000000     0.232000000000     0          
O        O      0.250000000000     0.713050000000     0.238600000000     0          
O        O      0.100850000000     0.598900000000     0.284100000000     0          
O        O      0.088150000000     0.750000000000     0.246700000000     0          
O        O      0.127000000000     0.709450000000     0.234600000000     0          
O        O      0.189150000000     0.600950000000     0.476900000000     0          
O        O      0.147250000000     0.625050000000     0.460700000000     0          
O        O      0.124500000000     0.592100000000     0.479600000000     0          
O        O      0.157300000000     0.560900000000     0.462300000000     0          
O        O      0.104300000000     0.625150000000     0.397900000000     0          
O        O      0.124850000000     0.654100000000     0.418000000000     0          
O        O      0.060950000000     0.642900000000     0.414600000000     0          
O        O      0.188100000000     0.607400000000     0.353200000000     0          
O        O      0.124800000000     0.592050000000     0.356500000000     0          
O        O      0.188450000000     0.638450000000     0.418600000000     0          
O        O      0.203000000000     0.624900000000     0.395800000000     0          
O        O      0.250000000000     0.644100000000     0.410900000000     0          
O        O      0.190850000000     0.643750000000     0.298500000000     0          
O        O      0.195450000000     0.661000000000     0.275600000000     0          
O        O      0.250000000000     0.649900000000     0.288200000000     0          
O        O      0.146950000000     0.750000000000     0.465100000000     0          
O        O      0.188550000000     0.713900000000     0.477700000000     0          
O        O      0.160250000000     0.688600000000     0.458300000000     0          
O        O      0.124550000000     0.699700000000     0.477900000000     0          
O        O      0.059700000000     0.602350000000     0.479300000000     0          
O        O      0.052300000000     0.625850000000     0.457100000000     0          
O        O      0.000000000000     0.607100000000     0.469700000000     0          
O        O      0.042000000000     0.562300000000     0.461500000000     0          
O        O      0.151650000000     0.599050000000     0.214400000000     0          
O        O      0.145050000000     0.647950000000     0.230000000000     0          
O        O      0.000000000000     0.606750000000     0.226200000000     0          
O        O      0.052050000000     0.587400000000     0.213400000000     0          
O        O      0.190900000000     0.655950000000     0.175300000000     0          
O        O      0.195500000000     0.640750000000     0.152100000000     0          
O        O      0.250000000000     0.648700000000     0.165100000000     0          
O        O      0.211600000000     0.596950000000     0.168900000000     0          
O        O      0.060250000000     0.594500000000     0.113900000000     0          
O        O      0.051450000000     0.651100000000     0.102300000000     0          
O        O      0.000000000000     0.614550000000     0.108500000000     0          
O        O      0.040350000000     0.593800000000     0.091300000000     0          
O        O      0.061500000000     0.641250000000     0.171300000000     0          
O        O      0.000000000000     0.645800000000     0.179000000000     0          
O        O      0.046500000000     0.624050000000     0.193800000000     0          
O        O      0.045350000000     0.687100000000     0.187300000000     0          
O        O      0.061100000000     0.645200000000     0.292700000000     0          
O        O      0.126050000000     0.650400000000     0.295600000000     0          
O        O      0.099600000000     0.705400000000     0.499900000000     0          
O        O      0.099750000000     0.647250000000     0.488800000000     0          
O        O      0.060050000000     0.695200000000     0.481400000000     0          
O        O      0.050500000000     0.662250000000     0.437200000000     0          
O        O      0.102250000000     0.665500000000     0.451600000000     0          
O        O      0.044800000000     0.691100000000     0.458300000000     0          
O        O      0.156700000000     0.627750000000     0.193000000000     0          
O        O      0.125750000000     0.651600000000     0.173800000000     0          
O        O      0.153450000000     0.692550000000     0.189400000000     0          
O        O      0.000000000000     0.645650000000     0.423200000000     0          
O        O      0.041500000000     0.600000000000     0.431200000000     0          
O        O      0.097600000000     0.658700000000     0.152500000000     0          
O        O      0.104000000000     0.598900000000     0.162000000000     0          
O        O      0.187650000000     0.586600000000     0.110200000000     0          
O        O      0.164250000000     0.645050000000     0.104800000000     0          
O        O      0.144900000000     0.592600000000     0.092200000000     0          
O        O      0.125400000000     0.599950000000     0.115000000000     0          
O        O      0.000000000000     0.710850000000     0.474200000000     0          
O        O      0.050150000000     0.750000000000     0.468800000000     0          
O        O      0.000000000000     0.647500000000     0.301400000000     0          
O        O      0.250000000000     0.693950000000     0.481700000000     0          
O        O      0.199750000000     0.656600000000     0.488600000000     0          
O        O      0.212550000000     0.712550000000     0.500000000000     0          
O        O      0.156000000000     0.542300000000     0.439400000000     0          
O        O      0.143500000000     0.596150000000     0.426600000000     0          
O        O      0.189450000000     0.554050000000     0.419300000000     0          
O        O      0.126300000000     0.537550000000     0.418100000000     0          
O        O      0.201350000000     0.624850000000     0.129000000000     0          
O        O      0.214250000000     0.560550000000     0.129900000000     0          
O        O      0.250000000000     0.599500000000     0.116100000000     0          
O        O      0.156150000000     0.650650000000     0.438900000000     0          
O        O      0.092500000000     0.564000000000     0.131200000000     0          
O        O      0.088000000000     0.629050000000     0.131500000000     0          
O        O      0.188950000000     0.653200000000     0.054900000000     0          
O        O      0.204350000000     0.658400000000     0.031900000000     0          
O        O      0.250000000000     0.640450000000     0.047800000000     0          
O        O      0.201250000000     0.599400000000     0.042200000000     0          
O        O      0.062200000000     0.603550000000     0.994700000000     0          
O        O      0.126200000000     0.605200000000     0.989400000000     0          
O        O      0.101100000000     0.559600000000     0.397500000000     0          
O        O      0.062750000000     0.552950000000     0.416600000000     0          
O        O      0.085750000000     0.500000000000     0.405500000000     0          
O        O      0.058900000000     0.645000000000     0.049400000000     0          
O        O      0.098000000000     0.600350000000     0.039100000000     0          
O        O      0.095100000000     0.661000000000     0.030500000000     0          
O        O      0.124050000000     0.649400000000     0.051600000000     0          
O        O      0.209850000000     0.750000000000     0.005900000000     0          
O        O      0.209200000000     0.685550000000     0.010400000000     0          
O        O      0.148850000000     0.690400000000     0.067800000000     0          
O        O      0.151700000000     0.626050000000     0.071800000000     0          
O        O      0.093300000000     0.593600000000     0.377400000000     0          
O        O      0.035900000000     0.624450000000     0.070400000000     0          
O        O      0.054400000000     0.686950000000     0.067800000000     0          
O        O      0.000000000000     0.664750000000     0.057200000000     0          
O        O      0.207550000000     0.591350000000     0.375400000000     0          
O        O      0.250000000000     0.617900000000     0.360000000000     0          
O        O      0.250000000000     0.616700000000     0.483700000000     0          
O        O      0.191200000000     0.595000000000     0.990700000000     0          
O        O      0.194250000000     0.622350000000     0.012300000000     0          
O        O      0.213300000000     0.561000000000     0.009500000000     0          
O        O      0.250000000000     0.608750000000     0.000400000000     0          
O        O      0.150600000000     0.668200000000     0.018600000000     0          
O        O      0.046300000000     0.559650000000     0.071100000000     0          
O        O      0.049550000000     0.500000000000     0.061400000000     0          
O        O      0.059950000000     0.552950000000     0.047900000000     0          
O        O      0.000000000000     0.539900000000     0.055800000000     0          
O        O      0.094100000000     0.542950000000     0.027800000000     0          
O        O      0.125150000000     0.546850000000     0.048800000000     0          
O        O      0.205150000000     0.559200000000     0.396200000000     0          
O        O      0.152100000000     0.590150000000     0.387800000000     0          
O        O      0.205200000000     0.750000000000     0.128000000000     0          
O        O      0.188350000000     0.702100000000     0.112900000000     0          
O        O      0.202450000000     0.687700000000     0.135500000000     0          
O        O      0.250000000000     0.706750000000     0.120700000000     0          
O        O      0.060850000000     0.500000000000     0.457600000000     0          
O        O      0.045650000000     0.538500000000     0.439200000000     0          
O        O      0.100100000000     0.549850000000     0.451600000000     0          
O        O      0.090700000000     0.590700000000     0.500000000000     0          
O        O      0.140050000000     0.500000000000     0.456600000000     0          
O        O      0.116400000000     0.500000000000     0.011700000000     0          
O        O      0.154600000000     0.549200000000     0.019300000000     0          
O        O      0.250000000000     0.560450000000     0.049300000000     0          
O        O      0.188150000000     0.545650000000     0.055000000000     0          
O        O      0.208850000000     0.540550000000     0.032300000000     0          
O        O      0.093700000000     0.601200000000     0.077700000000     0          
O        O      0.049500000000     0.558850000000     0.192000000000     0          
O        O      0.000000000000     0.546150000000     0.177000000000     0          
O        O      0.061600000000     0.552150000000     0.168800000000     0          
O        O      0.044600000000     0.500000000000     0.181800000000     0          
O        O      0.195100000000     0.500000000000     0.014300000000     0          
O        O      0.162000000000     0.698300000000     0.091100000000     0          
O        O      0.123600000000     0.693650000000     0.110300000000     0          
O        O      0.000000000000     0.688200000000     0.108100000000     0          
O        O      0.060650000000     0.709300000000     0.112800000000     0          
O        O      0.039050000000     0.705700000000     0.090100000000     0          
O        O      0.147950000000     0.750000000000     0.077400000000     0          
O        O      0.101050000000     0.706650000000     0.083000000000     0          
O        O      0.147300000000     0.500000000000     0.063300000000     0          
O        O      0.142600000000     0.561350000000     0.071200000000     0          
O        O      0.250000000000     0.544500000000     0.166600000000     0          
O        O      0.189500000000     0.538400000000     0.175800000000     0          
O        O      0.197250000000     0.551450000000     0.152600000000     0          
O        O      0.108150000000     0.539200000000     0.152700000000     0          
O        O      0.124500000000     0.548800000000     0.175400000000     0          
O        O      0.107150000000     0.750000000000     0.120800000000     0          
O        O      0.096550000000     0.693450000000     0.132100000000     0          
O        O      0.058600000000     0.750000000000     0.074100000000     0          
O        O      0.150900000000     0.694100000000     0.213100000000     0          
O        O      0.146850000000     0.653600000000     0.136800000000     0          
O        O      0.104800000000     0.500000000000     0.133800000000     0          
O        O      0.153350000000     0.543200000000     0.135300000000     0          
O        O      0.202350000000     0.500000000000     0.137900000000     0          
O        O      0.102700000000     0.593500000000     0.198500000000     0          
O        O      0.053100000000     0.750000000000     0.193300000000     0          
O        O      0.097150000000     0.705750000000     0.200300000000     0          
O        O      0.145800000000     0.750000000000     0.200600000000     0          
O        O      0.159150000000     0.562550000000     0.194900000000     0          
O        O      0.059900000000     0.500000000000     0.335400000000     0          
O        O      0.186000000000     0.500000000000     0.256300000000     0          
O        O      0.149750000000     0.500000000000     0.188400000000     0          
O        O      0.250000000000     0.539950000000     0.412100000000     0          
O        O      0.200700000000     0.500000000000     0.406400000000     0          
O        O      0.000000000000     0.554600000000     0.423200000000     0          
T        Si     0.109300000000     0.537850000000     0.261000000000     0          
T        Si     0.139600000000     0.537750000000     0.330600000000     0          
T        Si     0.138850000000     0.659700000000     0.330800000000     0          
T        Si     0.038650000000     0.600200000000     0.344800000000     0          
T        Si     0.211900000000     0.596950000000     0.246000000000     0          
T        Si     0.091500000000     0.593300000000     0.244400000000     0          
T        Si     0.110000000000     0.657750000000     0.259800000000     0          
T        Si     0.038200000000     0.712600000000     0.348800000000     0          
T        Si     0.211850000000     0.692500000000     0.368300000000     0          
T        Si     0.095650000000     0.688050000000     0.365100000000     0          
T        Si     0.188300000000     0.712350000000     0.394100000000     0          
T        Si     0.156850000000     0.713000000000     0.349400000000     0          
T        Si     0.037300000000     0.687100000000     0.222900000000     0          
T        Si     0.060850000000     0.662600000000     0.329400000000     0          
T        Si     0.038000000000     0.562850000000     0.305700000000     0          
T        Si     0.155450000000     0.560700000000     0.304700000000     0          
T        Si     0.212000000000     0.561600000000     0.285800000000     0          
T        Si     0.110850000000     0.711300000000     0.391800000000     0          
T        Si     0.211550000000     0.712350000000     0.242700000000     0          
T        Si     0.096200000000     0.560050000000     0.287200000000     0          
T        Si     0.091950000000     0.712600000000     0.241600000000     0          
T        Si     0.154450000000     0.594950000000     0.470000000000     0          
T        Si     0.095500000000     0.652500000000     0.408100000000     0          
T        Si     0.154150000000     0.596200000000     0.346700000000     0          
T        Si     0.211450000000     0.648600000000     0.407200000000     0          
T        Si     0.211900000000     0.638850000000     0.286200000000     0          
T        Si     0.155000000000     0.712850000000     0.469700000000     0          
T        Si     0.038600000000     0.599450000000     0.466900000000     0          
T        Si     0.151900000000     0.608650000000     0.228600000000     0          
T        Si     0.039450000000     0.610950000000     0.224300000000     0          
T        Si     0.212050000000     0.635750000000     0.165300000000     0          
T        Si     0.038050000000     0.613600000000     0.104000000000     0          
T        Si     0.038450000000     0.649500000000     0.182900000000     0          
T        Si     0.096850000000     0.638150000000     0.286600000000     0          
T        Si     0.096100000000     0.686800000000     0.487000000000     0          
T        Si     0.062450000000     0.661000000000     0.451100000000     0          
T        Si     0.156700000000     0.656750000000     0.182900000000     0          
T        Si     0.038250000000     0.637750000000     0.426500000000     0          
T        Si     0.097300000000     0.637600000000     0.164900000000     0          
T        Si     0.155150000000     0.606100000000     0.105400000000     0          
T        Si     0.038800000000     0.711900000000     0.470600000000     0          
T        Si     0.038300000000     0.639550000000     0.304500000000     0          
T        Si     0.212600000000     0.694300000000     0.487000000000     0          
T        Si     0.153850000000     0.557500000000     0.425800000000     0          
T        Si     0.213050000000     0.592950000000     0.121300000000     0          
T        Si     0.153350000000     0.634850000000     0.425500000000     0          
T        Si     0.091900000000     0.596950000000     0.122900000000     0          
T        Si     0.211300000000     0.637800000000     0.044200000000     0          
T        Si     0.099350000000     0.599350000000     0.000000000000     0          
T        Si     0.094100000000     0.537700000000     0.409400000000     0          
T        Si     0.094050000000     0.638950000000     0.042800000000     0          
T        Si     0.213400000000     0.713400000000     0.000000000000     0          
T        Si     0.153150000000     0.654550000000     0.061500000000     0          
T        Si     0.095250000000     0.609750000000     0.364000000000     0          
T        Si     0.037500000000     0.655500000000     0.061200000000     0          
T        Si     0.211800000000     0.617500000000     0.364400000000     0          
T        Si     0.211250000000     0.618400000000     0.487300000000     0          
T        Si     0.212350000000     0.597050000000     0.003100000000     0          
T        Si     0.189450000000     0.658450000000     0.018300000000     0          
T        Si     0.111300000000     0.661550000000     0.017200000000     0          
T        Si     0.038950000000     0.538150000000     0.059100000000     0          
T        Si     0.094350000000     0.560800000000     0.040900000000     0          
T        Si     0.192000000000     0.591400000000     0.388900000000     0          
T        Si     0.211500000000     0.711700000000     0.124300000000     0          
T        Si     0.062000000000     0.537650000000     0.452600000000     0          
T        Si     0.154950000000     0.638300000000     0.304700000000     0          
T        Si     0.093500000000     0.608050000000     0.486800000000     0          
T        Si     0.138400000000     0.538300000000     0.452400000000     0          
T        Si     0.117100000000     0.538350000000     0.015900000000     0          
T        Si     0.211950000000     0.561450000000     0.044700000000     0          
T        Si     0.054200000000     0.594700000000     0.077600000000     0          
T        Si     0.141350000000     0.657200000000     0.452300000000     0          
T        Si     0.038650000000     0.539250000000     0.179900000000     0          
T        Si     0.193000000000     0.537950000000     0.018900000000     0          
T        Si     0.159650000000     0.684850000000     0.104900000000     0          
T        Si     0.037900000000     0.688700000000     0.103400000000     0          
T        Si     0.139900000000     0.711350000000     0.079900000000     0          
T        Si     0.150800000000     0.538550000000     0.059600000000     0          
T        Si     0.133250000000     0.595200000000     0.078200000000     0          
T        Si     0.112650000000     0.592250000000     0.390200000000     0          
T        Si     0.212200000000     0.557700000000     0.166000000000     0          
T        Si     0.099350000000     0.559850000000     0.164800000000     0          
T        Si     0.096850000000     0.711600000000     0.119000000000     0          
T        Si     0.063100000000     0.712150000000     0.078700000000     0          
T        Si     0.153150000000     0.686500000000     0.227400000000     0          
T        Si     0.186600000000     0.651750000000     0.138400000000     0          
T        Si     0.114650000000     0.536900000000     0.138300000000     0          
T        Si     0.191850000000     0.538550000000     0.139000000000     0          
T        Si     0.062850000000     0.590750000000     0.199400000000     0          
T        Si     0.107350000000     0.658800000000     0.138300000000     0          
T        Si     0.058250000000     0.712150000000     0.197700000000     0          
T        Si     0.136800000000     0.711000000000     0.200800000000     0          
T        Si     0.142400000000     0.596000000000     0.200200000000     0          
T        Si     0.062700000000     0.537950000000     0.330800000000     0          
T        Si     0.184700000000     0.538000000000     0.261000000000     0          
T        Si     0.155650000000     0.537500000000     0.183600000000     0          
T        Si     0.188750000000     0.660150000000     0.261100000000     0          
T        Si     0.211250000000     0.538250000000     0.408400000000     0          
T        Si     0.037650000000     0.561400000000     0.427600000000     0          
O        O      0.051450000000     0.853050000000     0.739600000000     0          
O        O      0.039100000000     0.904050000000     0.725200000000     0          
O        O      0.000000000000     0.891300000000     0.743800000000     0          
O        O      0.059850000000     0.914050000000     0.747800000000     0          
O        O      0.039850000000     0.845050000000     0.682800000000     0          
O        O      0.061350000000     0.839850000000     0.660200000000     0          
O        O      0.000000000000     0.858150000000     0.664500000000     0          
O        O      0.049150000000     0.898800000000     0.669600000000     0          
O        O      0.123300000000     0.856700000000     0.663300000000     0          
O        O      0.186100000000     0.840100000000     0.661300000000     0          
O        O      0.159550000000     0.847350000000     0.682900000000     0          
O        O      0.169600000000     0.899950000000     0.669100000000     0          
O        O      0.062900000000     0.957200000000     0.660300000000     0          
O        O      0.107000000000     0.500000000000     0.652200000000     0          
O        O      0.104400000000     0.939600000000     0.643000000000     0          
O        O      0.126650000000     0.948500000000     0.665100000000     0          
O        O      0.061200000000     0.792350000000     0.747500000000     0          
O        O      0.101150000000     0.750000000000     0.758300000000     0          
O        O      0.099450000000     0.812600000000     0.765500000000     0          
O        O      0.125850000000     0.797050000000     0.744400000000     0          
O        O      0.122950000000     0.900900000000     0.746200000000     0          
O        O      0.088550000000     0.877200000000     0.764600000000     0          
O        O      0.101100000000     0.941650000000     0.763300000000     0          
O        O      0.187200000000     0.909400000000     0.747100000000     0          
O        O      0.162950000000     0.850500000000     0.741500000000     0          
O        O      0.158150000000     0.900300000000     0.726000000000     0          
O        O      0.250000000000     0.948550000000     0.653300000000     0          
O        O      0.194200000000     0.940450000000     0.640800000000     0          
O        O      0.214200000000     0.500000000000     0.646800000000     0          
O        O      0.191400000000     0.959500000000     0.663600000000     0          
O        O      0.195150000000     0.750000000000     0.636100000000     0          
O        O      0.210100000000     0.792150000000     0.618700000000     0          
O        O      0.210600000000     0.811550000000     0.641600000000     0          
O        O      0.153900000000     0.798450000000     0.630800000000     0          
O        O      0.203200000000     0.904300000000     0.621400000000     0          
O        O      0.206850000000     0.876750000000     0.643000000000     0          
O        O      0.148800000000     0.896650000000     0.634600000000     0          
O        O      0.250000000000     0.809450000000     0.601000000000     0          
O        O      0.186900000000     0.795300000000     0.596400000000     0          
O        O      0.202550000000     0.850100000000     0.608000000000     0          
O        O      0.250000000000     0.844250000000     0.656200000000     0          
O        O      0.187900000000     0.500000000000     0.771800000000     0          
O        O      0.206150000000     0.962350000000     0.790000000000     0          
O        O      0.148950000000     0.951650000000     0.779000000000     0          
O        O      0.205250000000     0.938000000000     0.767700000000     0          
O        O      0.163800000000     0.949000000000     0.684800000000     0          
O        O      0.055350000000     0.500000000000     0.698000000000     0          
O        O      0.040350000000     0.952200000000     0.682700000000     0          
O        O      0.054200000000     0.938350000000     0.705700000000     0          
O        O      0.101650000000     0.958200000000     0.690900000000     0          
O        O      0.055650000000     0.809250000000     0.702000000000     0          
O        O      0.099450000000     0.850200000000     0.692300000000     0          
O        O      0.047750000000     0.873650000000     0.704200000000     0          
O        O      0.050900000000     0.750000000000     0.711700000000     0          
O        O      0.100350000000     0.789300000000     0.717900000000     0          
O        O      0.039550000000     0.802650000000     0.725200000000     0          
O        O      0.250000000000     0.894600000000     0.604900000000     0          
O        O      0.188550000000     0.907900000000     0.598200000000     0          
O        O      0.250000000000     0.801050000000     0.755300000000     0          
O        O      0.191200000000     0.792350000000     0.745000000000     0          
O        O      0.194900000000     0.809800000000     0.768000000000     0          
O        O      0.213050000000     0.750000000000     0.761400000000     0          
O        O      0.098900000000     0.899150000000     0.715900000000     0          
O        O      0.250000000000     0.911850000000     0.753300000000     0          
O        O      0.209450000000     0.873000000000     0.765400000000     0          
O        O      0.100950000000     0.810850000000     0.523100000000     0          
O        O      0.125050000000     0.852750000000     0.539300000000     0          
O        O      0.092100000000     0.875500000000     0.520400000000     0          
O        O      0.060900000000     0.842700000000     0.537700000000     0          
O        O      0.125150000000     0.895700000000     0.602100000000     0          
O        O      0.154100000000     0.875150000000     0.582000000000     0          
O        O      0.142900000000     0.939050000000     0.585400000000     0          
O        O      0.107400000000     0.811900000000     0.646800000000     0          
O        O      0.092050000000     0.875200000000     0.643500000000     0          
O        O      0.138450000000     0.811550000000     0.581400000000     0          
O        O      0.124900000000     0.797000000000     0.604200000000     0          
O        O      0.144100000000     0.750000000000     0.589100000000     0          
O        O      0.143750000000     0.809150000000     0.701500000000     0          
O        O      0.161000000000     0.804550000000     0.724400000000     0          
O        O      0.149900000000     0.750000000000     0.711800000000     0          
O        O      0.250000000000     0.853050000000     0.534900000000     0          
O        O      0.213900000000     0.811450000000     0.522300000000     0          
O        O      0.188600000000     0.839750000000     0.541700000000     0          
O        O      0.199700000000     0.875450000000     0.522100000000     0          
O        O      0.102350000000     0.940300000000     0.520700000000     0          
O        O      0.125850000000     0.947700000000     0.542900000000     0          
O        O      0.107100000000     0.500000000000     0.530300000000     0          
O        O      0.062300000000     0.958000000000     0.538500000000     0          
O        O      0.099050000000     0.848350000000     0.785600000000     0          
O        O      0.147950000000     0.854950000000     0.770000000000     0          
O        O      0.106750000000     0.500000000000     0.773800000000     0          
O        O      0.087400000000     0.947950000000     0.786600000000     0          
O        O      0.155950000000     0.809100000000     0.824700000000     0          
O        O      0.140750000000     0.804500000000     0.847900000000     0          
O        O      0.148700000000     0.750000000000     0.834900000000     0          
O        O      0.096950000000     0.788400000000     0.831100000000     0          
O        O      0.094500000000     0.939750000000     0.886100000000     0          
O        O      0.151100000000     0.948550000000     0.897700000000     0          
O        O      0.114550000000     0.500000000000     0.891500000000     0          
O        O      0.093800000000     0.959650000000     0.908700000000     0          
O        O      0.141250000000     0.938500000000     0.828700000000     0          
O        O      0.145800000000     0.500000000000     0.821000000000     0          
O        O      0.124050000000     0.953500000000     0.806200000000     0          
O        O      0.187100000000     0.954650000000     0.812700000000     0          
O        O      0.145200000000     0.938900000000     0.707300000000     0          
O        O      0.150400000000     0.873950000000     0.704400000000     0          
O        O      0.205400000000     0.900400000000     0.500100000000     0          
O        O      0.147250000000     0.900250000000     0.511200000000     0          
O        O      0.195200000000     0.939950000000     0.518600000000     0          
O        O      0.162250000000     0.949500000000     0.562800000000     0          
O        O      0.165500000000     0.897750000000     0.548400000000     0          
O        O      0.191100000000     0.955200000000     0.541700000000     0          
O        O      0.127750000000     0.843300000000     0.807000000000     0          
O        O      0.151600000000     0.874250000000     0.826200000000     0          
O        O      0.192550000000     0.846550000000     0.810600000000     0          
O        O      0.145650000000     0.500000000000     0.576800000000     0          
O        O      0.100000000000     0.958500000000     0.568800000000     0          
O        O      0.158700000000     0.902400000000     0.847500000000     0          
O        O      0.098900000000     0.896000000000     0.838000000000     0          
O        O      0.086600000000     0.812350000000     0.889800000000     0          
O        O      0.145050000000     0.835750000000     0.895200000000     0          
O        O      0.092600000000     0.855100000000     0.907800000000     0          
O        O      0.099950000000     0.874600000000     0.885000000000     0          
O        O      0.210850000000     0.500000000000     0.525800000000     0          
O        O      0.250000000000     0.949850000000     0.531200000000     0          
O        O      0.147500000000     0.500000000000     0.698600000000     0          
O        O      0.193950000000     0.750000000000     0.518300000000     0          
O        O      0.156600000000     0.800250000000     0.511400000000     0          
O        O      0.212550000000     0.787450000000     0.500000000000     0          
O        O      0.042300000000     0.844000000000     0.560600000000     0          
O        O      0.096150000000     0.856500000000     0.573400000000     0          
O        O      0.054050000000     0.810550000000     0.580700000000     0          
O        O      0.037550000000     0.873700000000     0.581900000000     0          
O        O      0.124850000000     0.798650000000     0.871000000000     0          
O        O      0.060550000000     0.785750000000     0.870100000000     0          
O        O      0.099500000000     0.750000000000     0.883900000000     0          
O        O      0.150650000000     0.843850000000     0.561100000000     0          
O        O      0.064000000000     0.907500000000     0.868800000000     0          
O        O      0.129050000000     0.912000000000     0.868500000000     0          
O        O      0.153200000000     0.811050000000     0.945100000000     0          
O        O      0.158400000000     0.795650000000     0.968100000000     0          
O        O      0.140450000000     0.750000000000     0.952200000000     0          
O        O      0.099400000000     0.798750000000     0.957800000000     0          
O        O      0.103550000000     0.937800000000     0.005300000000     0          
O        O      0.105200000000     0.873800000000     0.010600000000     0          
O        O      0.059600000000     0.898900000000     0.602500000000     0          
O        O      0.052950000000     0.937250000000     0.583400000000     0          
O        O      0.000000000000     0.914250000000     0.594500000000     0          
O        O      0.145000000000     0.941100000000     0.950600000000     0          
O        O      0.100350000000     0.902000000000     0.960900000000     0          
O        O      0.161000000000     0.904900000000     0.969500000000     0          
O        O      0.149400000000     0.875950000000     0.948400000000     0          
O        O      0.250000000000     0.790150000000     0.994100000000     0          
O        O      0.185550000000     0.790800000000     0.989600000000     0          
O        O      0.190400000000     0.851150000000     0.932200000000     0          
O        O      0.126050000000     0.848300000000     0.928200000000     0          
O        O      0.093600000000     0.906700000000     0.622600000000     0          
O        O      0.124450000000     0.964100000000     0.929600000000     0          
O        O      0.186950000000     0.945600000000     0.932200000000     0          
O        O      0.164750000000     0.500000000000     0.942800000000     0          
O        O      0.091350000000     0.792450000000     0.624600000000     0          
O        O      0.117900000000     0.750000000000     0.640000000000     0          
O        O      0.116700000000     0.750000000000     0.516300000000     0          
O        O      0.095000000000     0.808800000000     0.009300000000     0          
O        O      0.122350000000     0.805750000000     0.987700000000     0          
O        O      0.061000000000     0.786700000000     0.990500000000     0          
O        O      0.108750000000     0.750000000000     0.999600000000     0          
O        O      0.168200000000     0.849400000000     0.981400000000     0          
O        O      0.059650000000     0.953700000000     0.928900000000     0          
O        O      0.000000000000     0.950450000000     0.938600000000     0          
O        O      0.052950000000     0.940050000000     0.952100000000     0          
O        O      0.039900000000     0.500000000000     0.944200000000     0          
O        O      0.042950000000     0.905900000000     0.972200000000     0          
O        O      0.046850000000     0.874850000000     0.951200000000     0          
O        O      0.059200000000     0.794850000000     0.603800000000     0          
O        O      0.090150000000     0.847900000000     0.612200000000     0          
O        O      0.250000000000     0.794800000000     0.872000000000     0          
O        O      0.202100000000     0.811650000000     0.887100000000     0          
O        O      0.187700000000     0.797550000000     0.864500000000     0          
O        O      0.206750000000     0.750000000000     0.879300000000     0          
O        O      0.000000000000     0.939150000000     0.542400000000     0          
O        O      0.038500000000     0.954350000000     0.560800000000     0          
O        O      0.049850000000     0.899900000000     0.548400000000     0          
O        O      0.090700000000     0.909300000000     0.500000000000     0          
O        O      0.000000000000     0.859950000000     0.543400000000     0          
O        O      0.000000000000     0.883600000000     0.988300000000     0          
O        O      0.049200000000     0.845400000000     0.980700000000     0          
O        O      0.060450000000     0.750000000000     0.950700000000     0          
O        O      0.045650000000     0.811850000000     0.945000000000     0          
O        O      0.040550000000     0.791150000000     0.967700000000     0          
O        O      0.101200000000     0.906300000000     0.922300000000     0          
O        O      0.058850000000     0.950500000000     0.808000000000     0          
O        O      0.046150000000     0.500000000000     0.823000000000     0          
O        O      0.052150000000     0.938400000000     0.831200000000     0          
O        O      0.000000000000     0.955400000000     0.818200000000     0          
O        O      0.000000000000     0.804900000000     0.985700000000     0          
O        O      0.198300000000     0.838000000000     0.908900000000     0          
O        O      0.193650000000     0.876400000000     0.889700000000     0          
O        O      0.188200000000     0.500000000000     0.891900000000     0          
O        O      0.209300000000     0.939350000000     0.887200000000     0          
O        O      0.205700000000     0.960950000000     0.909900000000     0          
O        O      0.250000000000     0.852050000000     0.922600000000     0          
O        O      0.206650000000     0.898950000000     0.917000000000     0          
O        O      0.000000000000     0.852700000000     0.936700000000     0          
O        O      0.061350000000     0.857400000000     0.928800000000     0          
O        O      0.044500000000     0.750000000000     0.833400000000     0          
O        O      0.038400000000     0.810500000000     0.824200000000     0          
O        O      0.051450000000     0.802750000000     0.847400000000     0          
O        O      0.039200000000     0.891850000000     0.847300000000     0          
O        O      0.048800000000     0.875500000000     0.824600000000     0          
O        O      0.250000000000     0.892850000000     0.879200000000     0          
O        O      0.193450000000     0.903450000000     0.867900000000     0          
O        O      0.250000000000     0.941400000000     0.925900000000     0          
O        O      0.194100000000     0.849100000000     0.786900000000     0          
O        O      0.153600000000     0.853150000000     0.863200000000     0          
O        O      0.000000000000     0.895200000000     0.866200000000     0          
O        O      0.043200000000     0.846650000000     0.864700000000     0          
O        O      0.000000000000     0.797650000000     0.862100000000     0          
O        O      0.093500000000     0.897300000000     0.801500000000     0          
O        O      0.250000000000     0.946900000000     0.806700000000     0          
O        O      0.205750000000     0.902850000000     0.799700000000     0          
O        O      0.250000000000     0.854200000000     0.799400000000     0          
O        O      0.062550000000     0.840850000000     0.805100000000     0          
O        O      0.000000000000     0.940100000000     0.664600000000     0          
O        O      0.000000000000     0.814000000000     0.743700000000     0          
O        O      0.000000000000     0.850250000000     0.811600000000     0          
O        O      0.039950000000     0.750000000000     0.587900000000     0          
O        O      0.000000000000     0.799300000000     0.593600000000     0          
O        O      0.054600000000     0.500000000000     0.576800000000     0          
T        Si     0.037850000000     0.890700000000     0.739000000000     0          
T        Si     0.037750000000     0.860400000000     0.669400000000     0          
T        Si     0.159700000000     0.861150000000     0.669200000000     0          
T        Si     0.100200000000     0.961350000000     0.655200000000     0          
T        Si     0.096950000000     0.788100000000     0.754000000000     0          
T        Si     0.093300000000     0.908500000000     0.755600000000     0          
T        Si     0.157750000000     0.890000000000     0.740200000000     0          
T        Si     0.212600000000     0.961800000000     0.651200000000     0          
T        Si     0.192500000000     0.788150000000     0.631700000000     0          
T        Si     0.188050000000     0.904350000000     0.634900000000     0          
T        Si     0.212350000000     0.811700000000     0.605900000000     0          
T        Si     0.213000000000     0.843150000000     0.650600000000     0          
T        Si     0.187100000000     0.962700000000     0.777100000000     0          
T        Si     0.162600000000     0.939150000000     0.670600000000     0          
T        Si     0.062850000000     0.962000000000     0.694300000000     0          
T        Si     0.060700000000     0.844550000000     0.695300000000     0          
T        Si     0.061600000000     0.788000000000     0.714200000000     0          
T        Si     0.211300000000     0.889150000000     0.608200000000     0          
T        Si     0.212350000000     0.788450000000     0.757300000000     0          
T        Si     0.060050000000     0.903800000000     0.712800000000     0          
T        Si     0.212600000000     0.908050000000     0.758400000000     0          
T        Si     0.094950000000     0.845550000000     0.530000000000     0          
T        Si     0.152500000000     0.904500000000     0.591900000000     0          
T        Si     0.096200000000     0.845850000000     0.653300000000     0          
T        Si     0.148600000000     0.788550000000     0.592800000000     0          
T        Si     0.138850000000     0.788100000000     0.713800000000     0          
T        Si     0.212850000000     0.845000000000     0.530300000000     0          
T        Si     0.099450000000     0.961400000000     0.533100000000     0          
T        Si     0.108650000000     0.848100000000     0.771400000000     0          
T        Si     0.110950000000     0.960550000000     0.775700000000     0          
T        Si     0.135750000000     0.787950000000     0.834700000000     0          
T        Si     0.113600000000     0.961950000000     0.896000000000     0          
T        Si     0.149500000000     0.961550000000     0.817100000000     0          
T        Si     0.138150000000     0.903150000000     0.713400000000     0          
T        Si     0.186800000000     0.903900000000     0.513000000000     0          
T        Si     0.161000000000     0.937550000000     0.548900000000     0          
T        Si     0.156750000000     0.843300000000     0.817100000000     0          
T        Si     0.137750000000     0.961750000000     0.573500000000     0          
T        Si     0.137600000000     0.902700000000     0.835100000000     0          
T        Si     0.106100000000     0.844850000000     0.894600000000     0          
T        Si     0.211900000000     0.961200000000     0.529400000000     0          
T        Si     0.139550000000     0.961700000000     0.695500000000     0          
T        Si     0.194300000000     0.787400000000     0.513000000000     0          
T        Si     0.057500000000     0.846150000000     0.574200000000     0          
T        Si     0.092950000000     0.786950000000     0.878700000000     0          
T        Si     0.134850000000     0.846650000000     0.574500000000     0          
T        Si     0.096950000000     0.908100000000     0.877100000000     0          
T        Si     0.137800000000     0.788700000000     0.955800000000     0          
T        Si     0.099350000000     0.900650000000     0.000000000000     0          
T        Si     0.037700000000     0.905900000000     0.590600000000     0          
T        Si     0.138950000000     0.905950000000     0.957200000000     0          
T        Si     0.213400000000     0.786600000000     0.000000000000     0          
T        Si     0.154550000000     0.846850000000     0.938500000000     0          
T        Si     0.109750000000     0.904750000000     0.636000000000     0          
T        Si     0.155500000000     0.962500000000     0.938800000000     0          
T        Si     0.117500000000     0.788200000000     0.635600000000     0          
T        Si     0.118400000000     0.788750000000     0.512700000000     0          
T        Si     0.097050000000     0.787650000000     0.996900000000     0          
T        Si     0.158450000000     0.810550000000     0.981700000000     0          
T        Si     0.161550000000     0.888700000000     0.982800000000     0          
T        Si     0.038150000000     0.961050000000     0.940900000000     0          
T        Si     0.060800000000     0.905650000000     0.959100000000     0          
T        Si     0.091400000000     0.808000000000     0.611100000000     0          
T        Si     0.211700000000     0.788500000000     0.875700000000     0          
T        Si     0.037650000000     0.938000000000     0.547400000000     0          
T        Si     0.138300000000     0.845050000000     0.695300000000     0          
T        Si     0.108050000000     0.906500000000     0.513200000000     0          
T        Si     0.038300000000     0.861600000000     0.547600000000     0          
T        Si     0.038350000000     0.882900000000     0.984100000000     0          
T        Si     0.061450000000     0.788050000000     0.955300000000     0          
T        Si     0.094700000000     0.945800000000     0.922400000000     0          
T        Si     0.157200000000     0.858650000000     0.547700000000     0          
T        Si     0.039250000000     0.961350000000     0.820100000000     0          
T        Si     0.037950000000     0.807000000000     0.981100000000     0          
T        Si     0.184850000000     0.840350000000     0.895100000000     0          
T        Si     0.188700000000     0.962100000000     0.896600000000     0          
T        Si     0.211350000000     0.860100000000     0.920100000000     0          
T        Si     0.038550000000     0.849200000000     0.940400000000     0          
T        Si     0.095200000000     0.866750000000     0.921800000000     0          
T        Si     0.092250000000     0.887350000000     0.609800000000     0          
T        Si     0.057700000000     0.787800000000     0.834000000000     0          
T        Si     0.059850000000     0.900650000000     0.835200000000     0          
T        Si     0.211600000000     0.903150000000     0.881000000000     0          
T        Si     0.212150000000     0.936900000000     0.921300000000     0          
T        Si     0.186500000000     0.846850000000     0.772600000000     0          
T        Si     0.151750000000     0.813400000000     0.861600000000     0          
T        Si     0.036900000000     0.885350000000     0.861700000000     0          
T        Si     0.038550000000     0.808150000000     0.861000000000     0          
T        Si     0.090750000000     0.937150000000     0.800600000000     0          
T        Si     0.158800000000     0.892650000000     0.861700000000     0          
T        Si     0.212150000000     0.941750000000     0.802300000000     0          
T        Si     0.211000000000     0.863200000000     0.799200000000     0          
T        Si     0.096000000000     0.857600000000     0.799800000000     0          
T        Si     0.037950000000     0.937300000000     0.669200000000     0          
T        Si     0.038000000000     0.815300000000     0.739000000000     0          
T        Si     0.037500000000     0.844350000000     0.816400000000     0          
T        Si     0.160150000000     0.811250000000     0.738900000000     0          
T        Si     0.038250000000     0.788750000000     0.591600000000     0          
T        Si     0.061400000000     0.962350000000     0.572400000000     0          
O        O      0.353050000000     0.948550000000     0.260400000000     0          
O        O      0.404050000000     0.960900000000     0.274800000000     0          
O        O      0.391300000000     0.500000000000     0.256200000000     0          
O        O      0.414050000000     0.940150000000     0.252200000000     0          
O        O      0.345050000000     0.960150000000     0.317200000000     0          
O        O      0.339850000000     0.938650000000     0.339800000000     0          
O        O      0.358150000000     0.500000000000     0.335500000000     0          
O        O      0.398800000000     0.950850000000     0.330400000000     0          
O        O      0.356700000000     0.876700000000     0.336700000000     0          
O        O      0.340100000000     0.813900000000     0.338700000000     0          
O        O      0.347350000000     0.840450000000     0.317100000000     0          
O        O      0.399950000000     0.830400000000     0.330900000000     0          
O        O      0.457200000000     0.937100000000     0.339700000000     0          
O        O      0.000000000000     0.893000000000     0.347800000000     0          
O        O      0.439600000000     0.895600000000     0.357000000000     0          
O        O      0.448500000000     0.873350000000     0.334900000000     0          
O        O      0.292350000000     0.938800000000     0.252500000000     0          
O        O      0.250000000000     0.898850000000     0.241700000000     0          
O        O      0.312600000000     0.900550000000     0.234500000000     0          
O        O      0.297050000000     0.874150000000     0.255600000000     0          
O        O      0.400900000000     0.877050000000     0.253800000000     0          
O        O      0.377200000000     0.911450000000     0.235400000000     0          
O        O      0.441650000000     0.898900000000     0.236700000000     0          
O        O      0.409400000000     0.812800000000     0.252900000000     0          
O        O      0.350500000000     0.837050000000     0.258500000000     0          
O        O      0.400300000000     0.841850000000     0.274000000000     0          
O        O      0.448550000000     0.750000000000     0.346700000000     0          
O        O      0.440450000000     0.805800000000     0.359200000000     0          
O        O      0.000000000000     0.785800000000     0.353200000000     0          
O        O      0.459500000000     0.808600000000     0.336400000000     0          
O        O      0.250000000000     0.804850000000     0.363900000000     0          
O        O      0.292150000000     0.789900000000     0.381300000000     0          
O        O      0.311550000000     0.789400000000     0.358400000000     0          
O        O      0.298450000000     0.846100000000     0.369200000000     0          
O        O      0.404300000000     0.796800000000     0.378600000000     0          
O        O      0.376750000000     0.793150000000     0.357000000000     0          
O        O      0.396650000000     0.851200000000     0.365400000000     0          
O        O      0.309450000000     0.750000000000     0.399000000000     0          
O        O      0.295300000000     0.813100000000     0.403600000000     0          
O        O      0.350100000000     0.797450000000     0.392000000000     0          
O        O      0.344250000000     0.750000000000     0.343800000000     0          
O        O      0.000000000000     0.812100000000     0.228200000000     0          
O        O      0.462350000000     0.793850000000     0.210000000000     0          
O        O      0.451650000000     0.851050000000     0.221000000000     0          
O        O      0.438000000000     0.794750000000     0.232300000000     0          
O        O      0.449000000000     0.836200000000     0.315200000000     0          
O        O      0.000000000000     0.944650000000     0.302000000000     0          
O        O      0.452200000000     0.959650000000     0.317300000000     0          
O        O      0.438350000000     0.945800000000     0.294300000000     0          
O        O      0.458200000000     0.898350000000     0.309100000000     0          
O        O      0.309250000000     0.944350000000     0.298000000000     0          
O        O      0.350200000000     0.900550000000     0.307700000000     0          
O        O      0.373650000000     0.952250000000     0.295800000000     0          
O        O      0.250000000000     0.949100000000     0.288300000000     0          
O        O      0.289300000000     0.899650000000     0.282100000000     0          
O        O      0.302650000000     0.960450000000     0.274800000000     0          
O        O      0.394600000000     0.750000000000     0.395100000000     0          
O        O      0.407900000000     0.811450000000     0.401800000000     0          
O        O      0.301050000000     0.750000000000     0.244700000000     0          
O        O      0.292350000000     0.808800000000     0.255000000000     0          
O        O      0.309800000000     0.805100000000     0.232000000000     0          
O        O      0.250000000000     0.786950000000     0.238600000000     0          
O        O      0.399150000000     0.901100000000     0.284100000000     0          
O        O      0.411850000000     0.750000000000     0.246700000000     0          
O        O      0.373000000000     0.790550000000     0.234600000000     0          
O        O      0.310850000000     0.899050000000     0.476900000000     0          
O        O      0.352750000000     0.874950000000     0.460700000000     0          
O        O      0.375500000000     0.907900000000     0.479600000000     0          
O        O      0.342700000000     0.939100000000     0.462300000000     0          
O        O      0.395700000000     0.874850000000     0.397900000000     0          
O        O      0.375150000000     0.845900000000     0.418000000000     0          
O        O      0.439050000000     0.857100000000     0.414600000000     0          
O        O      0.311900000000     0.892600000000     0.353200000000     0          
O        O      0.375200000000     0.907950000000     0.356500000000     0          
O        O      0.311550000000     0.861550000000     0.418600000000     0          
O        O      0.297000000000     0.875100000000     0.395800000000     0          
O        O      0.250000000000     0.855900000000     0.410900000000     0          
O        O      0.309150000000     0.856250000000     0.298500000000     0          
O        O      0.304550000000     0.839000000000     0.275600000000     0          
O        O      0.250000000000     0.850100000000     0.288200000000     0          
O        O      0.353050000000     0.750000000000     0.465100000000     0          
O        O      0.311450000000     0.786100000000     0.477700000000     0          
O        O      0.339750000000     0.811400000000     0.458300000000     0          
O        O      0.375450000000     0.800300000000     0.477900000000     0          
O        O      0.440300000000     0.897650000000     0.479300000000     0          
O        O      0.447700000000     0.874150000000     0.457100000000     0          
O        O      0.000000000000     0.892900000000     0.469700000000     0          
O        O      0.458000000000     0.937700000000     0.461500000000     0          
O        O      0.348350000000     0.900950000000     0.214400000000     0          
O        O      0.354950000000     0.852050000000     0.230000000000     0          
O        O      0.000000000000     0.893250000000     0.226200000000     0          
O        O      0.447950000000     0.912600000000     0.213400000000     0          
O        O      0.309100000000     0.844050000000     0.175300000000     0          
O        O      0.304500000000     0.859250000000     0.152100000000     0          
O        O      0.250000000000     0.851300000000     0.165100000000     0          
O        O      0.288400000000     0.903050000000     0.168900000000     0          
O        O      0.439750000000     0.905500000000     0.113900000000     0          
O        O      0.448550000000     0.848900000000     0.102300000000     0          
O        O      0.000000000000     0.885450000000     0.108500000000     0          
O        O      0.459650000000     0.906200000000     0.091300000000     0          
O        O      0.438500000000     0.858750000000     0.171300000000     0          
O        O      0.000000000000     0.854200000000     0.179000000000     0          
O        O      0.453500000000     0.875950000000     0.193800000000     0          
O        O      0.454650000000     0.812900000000     0.187300000000     0          
O        O      0.438900000000     0.854800000000     0.292700000000     0          
O        O      0.373950000000     0.849600000000     0.295600000000     0          
O        O      0.400400000000     0.794600000000     0.499900000000     0          
O        O      0.400250000000     0.852750000000     0.488800000000     0          
O        O      0.439950000000     0.804800000000     0.481400000000     0          
O        O      0.449500000000     0.837750000000     0.437200000000     0          
O        O      0.397750000000     0.834500000000     0.451600000000     0          
O        O      0.455200000000     0.808900000000     0.458300000000     0          
O        O      0.343300000000     0.872250000000     0.193000000000     0          
O        O      0.374250000000     0.848400000000     0.173800000000     0          
O        O      0.346550000000     0.807450000000     0.189400000000     0          
O        O      0.000000000000     0.854350000000     0.423200000000     0          
O        O      0.458500000000     0.900000000000     0.431200000000     0          
O        O      0.402400000000     0.841300000000     0.152500000000     0          
O        O      0.396000000000     0.901100000000     0.162000000000     0          
O        O      0.312350000000     0.913400000000     0.110200000000     0          
O        O      0.335750000000     0.854950000000     0.104800000000     0          
O        O      0.355100000000     0.907400000000     0.092200000000     0          
O        O      0.374600000000     0.900050000000     0.115000000000     0          
O        O      0.000000000000     0.789150000000     0.474200000000     0          
O        O      0.449850000000     0.750000000000     0.468800000000     0          
O        O      0.000000000000     0.852500000000     0.301400000000     0          
O        O      0.250000000000     0.806050000000     0.481700000000     0          
O        O      0.300250000000     0.843400000000     0.488600000000     0          
O        O      0.287450000000     0.787450000000     0.500000000000     0          
O        O      0.344000000000     0.957700000000     0.439400000000     0          
O        O      0.356500000000     0.903850000000     0.426600000000     0          
O        O      0.310550000000     0.945950000000     0.419300000000     0          
O        O      0.373700000000     0.962450000000     0.418100000000     0          
O        O      0.298650000000     0.875150000000     0.129000000000     0          
O        O      0.285750000000     0.939450000000     0.129900000000     0          
O        O      0.250000000000     0.900500000000     0.116100000000     0          
O        O      0.343850000000     0.849350000000     0.438900000000     0          
O        O      0.407500000000     0.936000000000     0.131200000000     0          
O        O      0.412000000000     0.870950000000     0.131500000000     0          
O        O      0.311050000000     0.846800000000     0.054900000000     0          
O        O      0.295650000000     0.841600000000     0.031900000000     0          
O        O      0.250000000000     0.859550000000     0.047800000000     0          
O        O      0.298750000000     0.900600000000     0.042200000000     0          
O        O      0.437800000000     0.896450000000     0.994700000000     0          
O        O      0.373800000000     0.894800000000     0.989400000000     0          
O        O      0.398900000000     0.940400000000     0.397500000000     0          
O        O      0.437250000000     0.947050000000     0.416600000000     0          
O        O      0.414250000000     0.500000000000     0.405500000000     0          
O        O      0.441100000000     0.855000000000     0.049400000000     0          
O        O      0.402000000000     0.899650000000     0.039100000000     0          
O        O      0.404900000000     0.839000000000     0.030500000000     0          
O        O      0.375950000000     0.850600000000     0.051600000000     0          
O        O      0.290150000000     0.750000000000     0.005900000000     0          
O        O      0.290800000000     0.814450000000     0.010400000000     0          
O        O      0.351150000000     0.809600000000     0.067800000000     0          
O        O      0.348300000000     0.873950000000     0.071800000000     0          
O        O      0.406700000000     0.906400000000     0.377400000000     0          
O        O      0.464100000000     0.875550000000     0.070400000000     0          
O        O      0.445600000000     0.813050000000     0.067800000000     0          
O        O      0.000000000000     0.835250000000     0.057200000000     0          
O        O      0.292450000000     0.908650000000     0.375400000000     0          
O        O      0.250000000000     0.882100000000     0.360000000000     0          
O        O      0.250000000000     0.883300000000     0.483700000000     0          
O        O      0.308800000000     0.905000000000     0.990700000000     0          
O        O      0.305750000000     0.877650000000     0.012300000000     0          
O        O      0.286700000000     0.939000000000     0.009500000000     0          
O        O      0.250000000000     0.891250000000     0.000400000000     0          
O        O      0.349400000000     0.831800000000     0.018600000000     0          
O        O      0.453700000000     0.940350000000     0.071100000000     0          
O        O      0.450450000000     0.500000000000     0.061400000000     0          
O        O      0.440050000000     0.947050000000     0.047900000000     0          
O        O      0.000000000000     0.960100000000     0.055800000000     0          
O        O      0.405900000000     0.957050000000     0.027800000000     0          
O        O      0.374850000000     0.953150000000     0.048800000000     0          
O        O      0.294850000000     0.940800000000     0.396200000000     0          
O        O      0.347900000000     0.909850000000     0.387800000000     0          
O        O      0.294800000000     0.750000000000     0.128000000000     0          
O        O      0.311650000000     0.797900000000     0.112900000000     0          
O        O      0.297550000000     0.812300000000     0.135500000000     0          
O        O      0.250000000000     0.793250000000     0.120700000000     0          
O        O      0.439150000000     0.500000000000     0.457600000000     0          
O        O      0.454350000000     0.961500000000     0.439200000000     0          
O        O      0.399900000000     0.950150000000     0.451600000000     0          
O        O      0.409300000000     0.909300000000     0.500000000000     0          
O        O      0.359950000000     0.500000000000     0.456600000000     0          
O        O      0.383600000000     0.500000000000     0.011700000000     0          
O        O      0.345400000000     0.950800000000     0.019300000000     0          
O        O      0.250000000000     0.939550000000     0.049300000000     0          
O        O      0.311850000000     0.954350000000     0.055000000000     0          
O        O      0.291150000000     0.959450000000     0.032300000000     0          
O        O      0.406300000000     0.898800000000     0.077700000000     0          
O        O      0.450500000000     0.941150000000     0.192000000000     0          
O        O      0.000000000000     0.953850000000     0.177000000000     0          
O        O      0.438400000000     0.947850000000     0.168800000000     0          
O        O      0.455400000000     0.500000000000     0.181800000000     0          
O        O      0.304900000000     0.500000000000     0.014300000000     0          
O        O      0.338000000000     0.801700000000     0.091100000000     0          
O        O      0.376400000000     0.806350000000     0.110300000000     0          
O        O      0.000000000000     0.811800000000     0.108100000000     0          
O        O      0.439350000000     0.790700000000     0.112800000000     0          
O        O      0.460950000000     0.794300000000     0.090100000000     0          
O        O      0.352050000000     0.750000000000     0.077400000000     0          
O        O      0.398950000000     0.793350000000     0.083000000000     0          
O        O      0.352700000000     0.500000000000     0.063300000000     0          
O        O      0.357400000000     0.938650000000     0.071200000000     0          
O        O      0.250000000000     0.955500000000     0.166600000000     0          
O        O      0.310500000000     0.961600000000     0.175800000000     0          
O        O      0.302750000000     0.948550000000     0.152600000000     0          
O        O      0.391850000000     0.960800000000     0.152700000000     0          
O        O      0.375500000000     0.951200000000     0.175400000000     0          
O        O      0.392850000000     0.750000000000     0.120800000000     0          
O        O      0.403450000000     0.806550000000     0.132100000000     0          
O        O      0.441400000000     0.750000000000     0.074100000000     0          
O        O      0.349100000000     0.805900000000     0.213100000000     0          
O        O      0.353150000000     0.846400000000     0.136800000000     0          
O        O      0.395200000000     0.500000000000     0.133800000000     0          
O        O      0.346650000000     0.956800000000     0.135300000000     0          
O        O      0.297650000000     0.500000000000     0.137900000000     0          
O        O      0.397300000000     0.906500000000     0.198500000000     0          
O        O      0.446900000000     0.750000000000     0.193300000000     0          
O        O      0.402850000000     0.794250000000     0.200300000000     0          
O        O      0.354200000000     0.750000000000     0.200600000000     0          
O        O      0.340850000000     0.937450000000     0.194900000000     0          
O        O      0.440100000000     0.500000000000     0.335400000000     0          
O        O      0.314000000000     0.500000000000     0.256300000000     0          
O        O      0.350250000000     0.500000000000     0.188400000000     0          
O        O      0.250000000000     0.960050000000     0.412100000000     0          
O        O      0.299300000000     0.500000000000     0.406400000000     0          
O        O      0.000000000000     0.945400000000     0.423200000000     0          
T        Si     0.390700000000     0.962150000000     0.261000000000     0          
T        Si     0.360400000000     0.962250000000     0.330600000000     0          
T        Si     0.361150000000     0.840300000000     0.330800000000     0          
T        Si     0.461350000000     0.899800000000     0.344800000000     0          
T        Si     0.288100000000     0.903050000000     0.246000000000     0          
T        Si     0.408500000000     0.906700000000     0.244400000000     0          
T        Si     0.390000000000     0.842250000000     0.259800000000     0          
T        Si     0.461800000000     0.787400000000     0.348800000000     0          
T        Si     0.288150000000     0.807500000000     0.368300000000     0          
T        Si     0.404350000000     0.811950000000     0.365100000000     0          
T        Si     0.311700000000     0.787650000000     0.394100000000     0          
T        Si     0.343150000000     0.787000000000     0.349400000000     0          
T        Si     0.462700000000     0.812900000000     0.222900000000     0          
T        Si     0.439150000000     0.837400000000     0.329400000000     0          
T        Si     0.462000000000     0.937150000000     0.305700000000     0          
T        Si     0.344550000000     0.939300000000     0.304700000000     0          
T        Si     0.288000000000     0.938400000000     0.285800000000     0          
T        Si     0.389150000000     0.788700000000     0.391800000000     0          
T        Si     0.288450000000     0.787650000000     0.242700000000     0          
T        Si     0.403800000000     0.939950000000     0.287200000000     0          
T        Si     0.408050000000     0.787400000000     0.241600000000     0          
T        Si     0.345550000000     0.905050000000     0.470000000000     0          
T        Si     0.404500000000     0.847500000000     0.408100000000     0          
T        Si     0.345850000000     0.903800000000     0.346700000000     0          
T        Si     0.288550000000     0.851400000000     0.407200000000     0          
T        Si     0.288100000000     0.861150000000     0.286200000000     0          
T        Si     0.345000000000     0.787150000000     0.469700000000     0          
T        Si     0.461400000000     0.900550000000     0.466900000000     0          
T        Si     0.348100000000     0.891350000000     0.228600000000     0          
T        Si     0.460550000000     0.889050000000     0.224300000000     0          
T        Si     0.287950000000     0.864250000000     0.165300000000     0          
T        Si     0.461950000000     0.886400000000     0.104000000000     0          
T        Si     0.461550000000     0.850500000000     0.182900000000     0          
T        Si     0.403150000000     0.861850000000     0.286600000000     0          
T        Si     0.403900000000     0.813200000000     0.487000000000     0          
T        Si     0.437550000000     0.839000000000     0.451100000000     0          
T        Si     0.343300000000     0.843250000000     0.182900000000     0          
T        Si     0.461750000000     0.862250000000     0.426500000000     0          
T        Si     0.402700000000     0.862400000000     0.164900000000     0          
T        Si     0.344850000000     0.893900000000     0.105400000000     0          
T        Si     0.461200000000     0.788100000000     0.470600000000     0          
T        Si     0.461700000000     0.860450000000     0.304500000000     0          
T        Si     0.287400000000     0.805700000000     0.487000000000     0          
T        Si     0.346150000000     0.942500000000     0.425800000000     0          
T        Si     0.286950000000     0.907050000000     0.121300000000     0          
T        Si     0.346650000000     0.865150000000     0.425500000000     0          
T        Si     0.408100000000     0.903050000000     0.122900000000     0          
T        Si     0.288700000000     0.862200000000     0.044200000000     0          
T        Si     0.400650000000     0.900650000000     0.000000000000     0          
T        Si     0.405900000000     0.962300000000     0.409400000000     0          
T        Si     0.405950000000     0.861050000000     0.042800000000     0          
T        Si     0.286600000000     0.786600000000     0.000000000000     0          
T        Si     0.346850000000     0.845450000000     0.061500000000     0          
T        Si     0.404750000000     0.890250000000     0.364000000000     0          
T        Si     0.462500000000     0.844500000000     0.061200000000     0          
T        Si     0.288200000000     0.882500000000     0.364400000000     0          
T        Si     0.288750000000     0.881600000000     0.487300000000     0          
T        Si     0.287650000000     0.902950000000     0.003100000000     0          
T        Si     0.310550000000     0.841550000000     0.018300000000     0          
T        Si     0.388700000000     0.838450000000     0.017200000000     0          
T        Si     0.461050000000     0.961850000000     0.059100000000     0          
T        Si     0.405650000000     0.939200000000     0.040900000000     0          
T        Si     0.308000000000     0.908600000000     0.388900000000     0          
T        Si     0.288500000000     0.788300000000     0.124300000000     0          
T        Si     0.438000000000     0.962350000000     0.452600000000     0          
T        Si     0.345050000000     0.861700000000     0.304700000000     0          
T        Si     0.406500000000     0.891950000000     0.486800000000     0          
T        Si     0.361600000000     0.961700000000     0.452400000000     0          
T        Si     0.382900000000     0.961650000000     0.015900000000     0          
T        Si     0.288050000000     0.938550000000     0.044700000000     0          
T        Si     0.445800000000     0.905300000000     0.077600000000     0          
T        Si     0.358650000000     0.842800000000     0.452300000000     0          
T        Si     0.461350000000     0.960750000000     0.179900000000     0          
T        Si     0.307000000000     0.962050000000     0.018900000000     0          
T        Si     0.340350000000     0.815150000000     0.104900000000     0          
T        Si     0.462100000000     0.811300000000     0.103400000000     0          
T        Si     0.360100000000     0.788650000000     0.079900000000     0          
T        Si     0.349200000000     0.961450000000     0.059600000000     0          
T        Si     0.366750000000     0.904800000000     0.078200000000     0          
T        Si     0.387350000000     0.907750000000     0.390200000000     0          
T        Si     0.287800000000     0.942300000000     0.166000000000     0          
T        Si     0.400650000000     0.940150000000     0.164800000000     0          
T        Si     0.403150000000     0.788400000000     0.119000000000     0          
T        Si     0.436900000000     0.787850000000     0.078700000000     0          
T        Si     0.346850000000     0.813500000000     0.227400000000     0          
T        Si     0.313400000000     0.848250000000     0.138400000000     0          
T        Si     0.385350000000     0.963100000000     0.138300000000     0          
T        Si     0.308150000000     0.961450000000     0.139000000000     0          
T        Si     0.437150000000     0.909250000000     0.199400000000     0          
T        Si     0.392650000000     0.841200000000     0.138300000000     0          
T        Si     0.441750000000     0.787850000000     0.197700000000     0          
T        Si     0.363200000000     0.789000000000     0.200800000000     0          
T        Si     0.357600000000     0.904000000000     0.200200000000     0          
T        Si     0.437300000000     0.962050000000     0.330800000000     0          
T        Si     0.315300000000     0.962000000000     0.261000000000     0          
T        Si     0.344350000000     0.962500000000     0.183600000000     0          
T        Si     0.311250000000     0.839850000000     0.261100000000     0          
T        Si     0.288750000000     0.961750000000     0.408400000000     0          
T        Si     0.462350000000     0.938600000000     0.427600000000     0          
O        O      0.448550000000     0.646950000000     0.739600000000     0          
O        O      0.460900000000     0.595950000000     0.725200000000     0          
O        O      0.000000000000     0.608700000000     0.743800000000     0          
O        O      0.440150000000     0.585950000000     0.747800000000     0          
O        O      0.460150000000     0.654950000000     0.682800000000     0          
O        O      0.438650000000     0.660150000000     0.660200000000     0          
O        O      0.000000000000     0.641850000000     0.664500000000     0          
O        O      0.450850000000     0.601200000000     0.669600000000     0          
O        O      0.376700000000     0.643300000000     0.663300000000     0          
O        O      0.313900000000     0.659900000000     0.661300000000     0          
O        O      0.340450000000     0.652650000000     0.682900000000     0          
O        O      0.330400000000     0.600050000000     0.669100000000     0          
O        O      0.437100000000     0.542800000000     0.660300000000     0          
O        O      0.393000000000     0.500000000000     0.652200000000     0          
O        O      0.395600000000     0.560400000000     0.643000000000     0          
O        O      0.373350000000     0.551500000000     0.665100000000     0          
O        O      0.438800000000     0.707650000000     0.747500000000     0          
O        O      0.398850000000     0.750000000000     0.758300000000     0          
O        O      0.400550000000     0.687400000000     0.765500000000     0          
O        O      0.374150000000     0.702950000000     0.744400000000     0          
O        O      0.377050000000     0.599100000000     0.746200000000     0          
O        O      0.411450000000     0.622800000000     0.764600000000     0          
O        O      0.398900000000     0.558350000000     0.763300000000     0          
O        O      0.312800000000     0.590600000000     0.747100000000     0          
O        O      0.337050000000     0.649500000000     0.741500000000     0          
O        O      0.341850000000     0.599700000000     0.726000000000     0          
O        O      0.250000000000     0.551450000000     0.653300000000     0          
O        O      0.305800000000     0.559550000000     0.640800000000     0          
O        O      0.285800000000     0.500000000000     0.646800000000     0          
O        O      0.308600000000     0.540500000000     0.663600000000     0          
O        O      0.304850000000     0.750000000000     0.636100000000     0          
O        O      0.289900000000     0.707850000000     0.618700000000     0          
O        O      0.289400000000     0.688450000000     0.641600000000     0          
O        O      0.346100000000     0.701550000000     0.630800000000     0          
O        O      0.296800000000     0.595700000000     0.621400000000     0          
O        O      0.293150000000     0.623250000000     0.643000000000     0          
O        O      0.351200000000     0.603350000000     0.634600000000     0          
O        O      0.250000000000     0.690550000000     0.601000000000     0          
O        O      0.313100000000     0.704700000000     0.596400000000     0          
O        O      0.297450000000     0.649900000000     0.608000000000     0          
O        O      0.250000000000     0.655750000000     0.656200000000     0          
O        O      0.312100000000     0.500000000000     0.771800000000     0          
O        O      0.293850000000     0.537650000000     0.790000000000     0          
O        O      0.351050000000     0.548350000000     0.779000000000     0          
O        O      0.294750000000     0.562000000000     0.767700000000     0          
O        O      0.336200000000     0.551000000000     0.684800000000     0          
O        O      0.444650000000     0.500000000000     0.698000000000     0          
O        O      0.459650000000     0.547800000000     0.682700000000     0          
O        O      0.445800000000     0.561650000000     0.705700000000     0          
O        O      0.398350000000     0.541800000000     0.690900000000     0          
O        O      0.444350000000     0.690750000000     0.702000000000     0          
O        O      0.400550000000     0.649800000000     0.692300000000     0          
O        O      0.452250000000     0.626350000000     0.704200000000     0          
O        O      0.449100000000     0.750000000000     0.711700000000     0          
O        O      0.399650000000     0.710700000000     0.717900000000     0          
O        O      0.460450000000     0.697350000000     0.725200000000     0          
O        O      0.250000000000     0.605400000000     0.604900000000     0          
O        O      0.311450000000     0.592100000000     0.598200000000     0          
O        O      0.250000000000     0.698950000000     0.755300000000     0          
O        O      0.308800000000     0.707650000000     0.745000000000     0          
O        O      0.305100000000     0.690200000000     0.768000000000     0          
O        O      0.286950000000     0.750000000000     0.761400000000     0          
O        O      0.401100000000     0.600850000000     0.715900000000     0          
O        O      0.250000000000     0.588150000000     0.753300000000     0          
O        O      0.290550000000     0.627000000000     0.765400000000     0          
O        O      0.399050000000     0.689150000000     0.523100000000     0          
O        O      0.374950000000     0.647250000000     0.539300000000     0          
O        O      0.407900000000     0.624500000000     0.520400000000     0          
O        O      0.439100000000     0.657300000000     0.537700000000     0          
O        O      0.374850000000     0.604300000000     0.602100000000     0          
O        O      0.345900000000     0.624850000000     0.582000000000     0          
O        O      0.357100000000     0.560950000000     0.585400000000     0          
O        O      0.392600000000     0.688100000000     0.646800000000     0          
O        O      0.407950000000     0.624800000000     0.643500000000     0          
O        O      0.361550000000     0.688450000000     0.581400000000     0          
O        O      0.375100000000     0.703000000000     0.604200000000     0          
O        O      0.355900000000     0.750000000000     0.589100000000     0          
O        O      0.356250000000     0.690850000000     0.701500000000     0          
O        O      0.339000000000     0.695450000000     0.724400000000     0          
O        O      0.350100000000     0.750000000000     0.711800000000     0          
O        O      0.250000000000     0.646950000000     0.534900000000     0          
O        O      0.286100000000     0.688550000000     0.522300000000     0          
O        O      0.311400000000     0.660250000000     0.541700000000     0          
O        O      0.300300000000     0.624550000000     0.522100000000     0          
O        O      0.397650000000     0.559700000000     0.520700000000     0          
O        O      0.374150000000     0.552300000000     0.542900000000     0          
O        O      0.392900000000     0.500000000000     0.530300000000     0          
O        O      0.437700000000     0.542000000000     0.538500000000     0          
O        O      0.400950000000     0.651650000000     0.785600000000     0          
O        O      0.352050000000     0.645050000000     0.770000000000     0          
O        O      0.393250000000     0.500000000000     0.773800000000     0          
O        O      0.412600000000     0.552050000000     0.786600000000     0          
O        O      0.344050000000     0.690900000000     0.824700000000     0          
O        O      0.359250000000     0.695500000000     0.847900000000     0          
O        O      0.351300000000     0.750000000000     0.834900000000     0          
O        O      0.403050000000     0.711600000000     0.831100000000     0          
O        O      0.405500000000     0.560250000000     0.886100000000     0          
O        O      0.348900000000     0.551450000000     0.897700000000     0          
O        O      0.385450000000     0.500000000000     0.891500000000     0          
O        O      0.406200000000     0.540350000000     0.908700000000     0          
O        O      0.358750000000     0.561500000000     0.828700000000     0          
O        O      0.354200000000     0.500000000000     0.821000000000     0          
O        O      0.375950000000     0.546500000000     0.806200000000     0          
O        O      0.312900000000     0.545350000000     0.812700000000     0          
O        O      0.354800000000     0.561100000000     0.707300000000     0          
O        O      0.349600000000     0.626050000000     0.704400000000     0          
O        O      0.294600000000     0.599600000000     0.500100000000     0          
O        O      0.352750000000     0.599750000000     0.511200000000     0          
O        O      0.304800000000     0.560050000000     0.518600000000     0          
O        O      0.337750000000     0.550500000000     0.562800000000     0          
O        O      0.334500000000     0.602250000000     0.548400000000     0          
O        O      0.308900000000     0.544800000000     0.541700000000     0          
O        O      0.372250000000     0.656700000000     0.807000000000     0          
O        O      0.348400000000     0.625750000000     0.826200000000     0          
O        O      0.307450000000     0.653450000000     0.810600000000     0          
O        O      0.354350000000     0.500000000000     0.576800000000     0          
O        O      0.400000000000     0.541500000000     0.568800000000     0          
O        O      0.341300000000     0.597600000000     0.847500000000     0          
O        O      0.401100000000     0.604000000000     0.838000000000     0          
O        O      0.413400000000     0.687650000000     0.889800000000     0          
O        O      0.354950000000     0.664250000000     0.895200000000     0          
O        O      0.407400000000     0.644900000000     0.907800000000     0          
O        O      0.400050000000     0.625400000000     0.885000000000     0          
O        O      0.289150000000     0.500000000000     0.525800000000     0          
O        O      0.250000000000     0.550150000000     0.531200000000     0          
O        O      0.352500000000     0.500000000000     0.698600000000     0          
O        O      0.306050000000     0.750000000000     0.518300000000     0          
O        O      0.343400000000     0.699750000000     0.511400000000     0          
O        O      0.287450000000     0.712550000000     0.500000000000     0          
O        O      0.457700000000     0.656000000000     0.560600000000     0          
O        O      0.403850000000     0.643500000000     0.573400000000     0          
O        O      0.445950000000     0.689450000000     0.580700000000     0          
O        O      0.462450000000     0.626300000000     0.581900000000     0          
O        O      0.375150000000     0.701350000000     0.871000000000     0          
O        O      0.439450000000     0.714250000000     0.870100000000     0          
O        O      0.400500000000     0.750000000000     0.883900000000     0          
O        O      0.349350000000     0.656150000000     0.561100000000     0          
O        O      0.436000000000     0.592500000000     0.868800000000     0          
O        O      0.370950000000     0.588000000000     0.868500000000     0          
O        O      0.346800000000     0.688950000000     0.945100000000     0          
O        O      0.341600000000     0.704350000000     0.968100000000     0          
O        O      0.359550000000     0.750000000000     0.952200000000     0          
O        O      0.400600000000     0.701250000000     0.957800000000     0          
O        O      0.396450000000     0.562200000000     0.005300000000     0          
O        O      0.394800000000     0.626200000000     0.010600000000     0          
O        O      0.440400000000     0.601100000000     0.602500000000     0          
O        O      0.447050000000     0.562750000000     0.583400000000     0          
O        O      0.000000000000     0.585750000000     0.594500000000     0          
O        O      0.355000000000     0.558900000000     0.950600000000     0          
O        O      0.399650000000     0.598000000000     0.960900000000     0          
O        O      0.339000000000     0.595100000000     0.969500000000     0          
O        O      0.350600000000     0.624050000000     0.948400000000     0          
O        O      0.250000000000     0.709850000000     0.994100000000     0          
O        O      0.314450000000     0.709200000000     0.989600000000     0          
O        O      0.309600000000     0.648850000000     0.932200000000     0          
O        O      0.373950000000     0.651700000000     0.928200000000     0          
O        O      0.406400000000     0.593300000000     0.622600000000     0          
O        O      0.375550000000     0.535900000000     0.929600000000     0          
O        O      0.313050000000     0.554400000000     0.932200000000     0          
O        O      0.335250000000     0.500000000000     0.942800000000     0          
O        O      0.408650000000     0.707550000000     0.624600000000     0          
O        O      0.382100000000     0.750000000000     0.640000000000     0          
O        O      0.383300000000     0.750000000000     0.516300000000     0          
O        O      0.405000000000     0.691200000000     0.009300000000     0          
O        O      0.377650000000     0.694250000000     0.987700000000     0          
O        O      0.439000000000     0.713300000000     0.990500000000     0          
O        O      0.391250000000     0.750000000000     0.999600000000     0          
O        O      0.331800000000     0.650600000000     0.981400000000     0          
O        O      0.440350000000     0.546300000000     0.928900000000     0          
O        O      0.000000000000     0.549550000000     0.938600000000     0          
O        O      0.447050000000     0.559950000000     0.952100000000     0          
O        O      0.460100000000     0.500000000000     0.944200000000     0          
O        O      0.457050000000     0.594100000000     0.972200000000     0          
O        O      0.453150000000     0.625150000000     0.951200000000     0          
O        O      0.440800000000     0.705150000000     0.603800000000     0          
O        O      0.409850000000     0.652100000000     0.612200000000     0          
O        O      0.250000000000     0.705200000000     0.872000000000     0          
O        O      0.297900000000     0.688350000000     0.887100000000     0          
O        O      0.312300000000     0.702450000000     0.864500000000     0          
O        O      0.293250000000     0.750000000000     0.879300000000     0          
O        O      0.000000000000     0.560850000000     0.542400000000     0          
O        O      0.461500000000     0.545650000000     0.560800000000     0          
O        O      0.450150000000     0.600100000000     0.548400000000     0          
O        O      0.409300000000     0.590700000000     0.500000000000     0          
O        O      0.000000000000     0.640050000000     0.543400000000     0          
O        O      0.000000000000     0.616400000000     0.988300000000     0          
O        O      0.450800000000     0.654600000000     0.980700000000     0          
O        O      0.439550000000     0.750000000000     0.950700000000     0          
O        O      0.454350000000     0.688150000000     0.945000000000     0          
O        O      0.459450000000     0.708850000000     0.967700000000     0          
O        O      0.398800000000     0.593700000000     0.922300000000     0          
O        O      0.441150000000     0.549500000000     0.808000000000     0          
O        O      0.453850000000     0.500000000000     0.823000000000     0          
O        O      0.447850000000     0.561600000000     0.831200000000     0          
O        O      0.000000000000     0.544600000000     0.818200000000     0          
O        O      0.000000000000     0.695100000000     0.985700000000     0          
O        O      0.301700000000     0.662000000000     0.908900000000     0          
O        O      0.306350000000     0.623600000000     0.889700000000     0          
O        O      0.311800000000     0.500000000000     0.891900000000     0          
O        O      0.290700000000     0.560650000000     0.887200000000     0          
O        O      0.294300000000     0.539050000000     0.909900000000     0          
O        O      0.250000000000     0.647950000000     0.922600000000     0          
O        O      0.293350000000     0.601050000000     0.917000000000     0          
O        O      0.000000000000     0.647300000000     0.936700000000     0          
O        O      0.438650000000     0.642600000000     0.928800000000     0          
O        O      0.455500000000     0.750000000000     0.833400000000     0          
O        O      0.461600000000     0.689500000000     0.824200000000     0          
O        O      0.448550000000     0.697250000000     0.847400000000     0          
O        O      0.460800000000     0.608150000000     0.847300000000     0          
O        O      0.451200000000     0.624500000000     0.824600000000     0          
O        O      0.250000000000     0.607150000000     0.879200000000     0          
O        O      0.306550000000     0.596550000000     0.867900000000     0          
O        O      0.250000000000     0.558600000000     0.925900000000     0          
O        O      0.305900000000     0.650900000000     0.786900000000     0          
O        O      0.346400000000     0.646850000000     0.863200000000     0          
O        O      0.000000000000     0.604800000000     0.866200000000     0          
O        O      0.456800000000     0.653350000000     0.864700000000     0          
O        O      0.000000000000     0.702350000000     0.862100000000     0          
O        O      0.406500000000     0.602700000000     0.801500000000     0          
O        O      0.250000000000     0.553100000000     0.806700000000     0          
O        O      0.294250000000     0.597150000000     0.799700000000     0          
O        O      0.250000000000     0.645800000000     0.799400000000     0          
O        O      0.437450000000     0.659150000000     0.805100000000     0          
O        O      0.000000000000     0.559900000000     0.664600000000     0          
O        O      0.000000000000     0.686000000000     0.743700000000     0          
O        O      0.000000000000     0.649750000000     0.811600000000     0          
O        O      0.460050000000     0.750000000000     0.587900000000     0          
O        O      0.000000000000     0.700700000000     0.593600000000     0          
O        O      0.445400000000     0.500000000000     0.576800000000     0          
T        Si     0.462150000000     0.609300000000     0.739000000000     0          
T        Si     0.462250000000     0.639600000000     0.669400000000     0          
T        Si     0.340300000000     0.638850000000     0.669200000000     0          
T        Si     0.399800000000     0.538650000000     0.655200000000     0          
T        Si     0.403050000000     0.711900000000     0.754000000000     0          
T        Si     0.406700000000     0.591500000000     0.755600000000     0          
T        Si     0.342250000000     0.610000000000     0.740200000000     0          
T        Si     0.287400000000     0.538200000000     0.651200000000     0          
T        Si     0.307500000000     0.711850000000     0.631700000000     0          
T        Si     0.311950000000     0.595650000000     0.634900000000     0          
T        Si     0.287650000000     0.688300000000     0.605900000000     0          
T        Si     0.287000000000     0.656850000000     0.650600000000     0          
T        Si     0.312900000000     0.537300000000     0.777100000000     0          
T        Si     0.337400000000     0.560850000000     0.670600000000     0          
T        Si     0.437150000000     0.538000000000     0.694300000000     0          
T        Si     0.439300000000     0.655450000000     0.695300000000     0          
T        Si     0.438400000000     0.712000000000     0.714200000000     0          
T        Si     0.288700000000     0.610850000000     0.608200000000     0          
T        Si     0.287650000000     0.711550000000     0.757300000000     0          
T        Si     0.439950000000     0.596200000000     0.712800000000     0          
T        Si     0.287400000000     0.591950000000     0.758400000000     0          
T        Si     0.405050000000     0.654450000000     0.530000000000     0          
T        Si     0.347500000000     0.595500000000     0.591900000000     0          
T        Si     0.403800000000     0.654150000000     0.653300000000     0          
T        Si     0.351400000000     0.711450000000     0.592800000000     0          
T        Si     0.361150000000     0.711900000000     0.713800000000     0          
T        Si     0.287150000000     0.655000000000     0.530300000000     0          
T        Si     0.400550000000     0.538600000000     0.533100000000     0          
T        Si     0.391350000000     0.651900000000     0.771400000000     0          
T        Si     0.389050000000     0.539450000000     0.775700000000     0          
T        Si     0.364250000000     0.712050000000     0.834700000000     0          
T        Si     0.386400000000     0.538050000000     0.896000000000     0          
T        Si     0.350500000000     0.538450000000     0.817100000000     0          
T        Si     0.361850000000     0.596850000000     0.713400000000     0          
T        Si     0.313200000000     0.596100000000     0.513000000000     0          
T        Si     0.339000000000     0.562450000000     0.548900000000     0          
T        Si     0.343250000000     0.656700000000     0.817100000000     0          
T        Si     0.362250000000     0.538250000000     0.573500000000     0          
T        Si     0.362400000000     0.597300000000     0.835100000000     0          
T        Si     0.393900000000     0.655150000000     0.894600000000     0          
T        Si     0.288100000000     0.538800000000     0.529400000000     0          
T        Si     0.360450000000     0.538300000000     0.695500000000     0          
T        Si     0.305700000000     0.712600000000     0.513000000000     0          
T        Si     0.442500000000     0.653850000000     0.574200000000     0          
T        Si     0.407050000000     0.713050000000     0.878700000000     0          
T        Si     0.365150000000     0.653350000000     0.574500000000     0          
T        Si     0.403050000000     0.591900000000     0.877100000000     0          
T        Si     0.362200000000     0.711300000000     0.955800000000     0          
T        Si     0.400650000000     0.599350000000     0.000000000000     0          
T        Si     0.462300000000     0.594100000000     0.590600000000     0          
T        Si     0.361050000000     0.594050000000     0.957200000000     0          
T        Si     0.286600000000     0.713400000000     0.000000000000     0          
T        Si     0.345450000000     0.653150000000     0.938500000000     0          
T        Si     0.390250000000     0.595250000000     0.636000000000     0          
T        Si     0.344500000000     0.537500000000     0.938800000000     0          
T        Si     0.382500000000     0.711800000000     0.635600000000     0          
T        Si     0.381600000000     0.711250000000     0.512700000000     0          
T        Si     0.402950000000     0.712350000000     0.996900000000     0          
T        Si     0.341550000000     0.689450000000     0.981700000000     0          
T        Si     0.338450000000     0.611300000000     0.982800000000     0          
T        Si     0.461850000000     0.538950000000     0.940900000000     0          
T        Si     0.439200000000     0.594350000000     0.959100000000     0          
T        Si     0.408600000000     0.692000000000     0.611100000000     0          
T        Si     0.288300000000     0.711500000000     0.875700000000     0          
T        Si     0.462350000000     0.562000000000     0.547400000000     0          
T        Si     0.361700000000     0.654950000000     0.695300000000     0          
T        Si     0.391950000000     0.593500000000     0.513200000000     0          
T        Si     0.461700000000     0.638400000000     0.547600000000     0          
T        Si     0.461650000000     0.617100000000     0.984100000000     0          
T        Si     0.438550000000     0.711950000000     0.955300000000     0          
T        Si     0.405300000000     0.554200000000     0.922400000000     0          
T        Si     0.342800000000     0.641350000000     0.547700000000     0          
T        Si     0.460750000000     0.538650000000     0.820100000000     0          
T        Si     0.462050000000     0.693000000000     0.981100000000     0          
T        Si     0.315150000000     0.659650000000     0.895100000000     0          
T        Si     0.311300000000     0.537900000000     0.896600000000     0          
T        Si     0.288650000000     0.639900000000     0.920100000000     0          
T        Si     0.461450000000     0.650800000000     0.940400000000     0          
T        Si     0.404800000000     0.633250000000     0.921800000000     0          
T        Si     0.407750000000     0.612650000000     0.609800000000     0          
T        Si     0.442300000000     0.712200000000     0.834000000000     0          
T        Si     0.440150000000     0.599350000000     0.835200000000     0          
T        Si     0.288400000000     0.596850000000     0.881000000000     0          
T        Si     0.287850000000     0.563100000000     0.921300000000     0          
T        Si     0.313500000000     0.653150000000     0.772600000000     0          
T        Si     0.348250000000     0.686600000000     0.861600000000     0          
T        Si     0.463100000000     0.614650000000     0.861700000000     0          
T        Si     0.461450000000     0.691850000000     0.861000000000     0          
T        Si     0.409250000000     0.562850000000     0.800600000000     0          
T        Si     0.341200000000     0.607350000000     0.861700000000     0          
T        Si     0.287850000000     0.558250000000     0.802300000000     0          
T        Si     0.289000000000     0.636800000000     0.799200000000     0          
T        Si     0.404000000000     0.642400000000     0.799800000000     0          
T        Si     0.462050000000     0.562700000000     0.669200000000     0          
T        Si     0.462000000000     0.684700000000     0.739000000000     0          
T        Si     0.462500000000     0.655650000000     0.816400000000     0          
T        Si     0.339850000000     0.688750000000     0.738900000000     0          
T        Si     0.461750000000     0.711250000000     0.591600000000     0          
T        Si     0.438600000000     0.537650000000     0.572400000000     0          
O        O      0.353050000000     0.551450000000     0.260400000000     0          
O        O      0.404050000000     0.539100000000     0.274800000000     0          
O        O      0.414050000000     0.559850000000     0.252200000000     0          
O        O      0.345050000000     0.539850000000     0.317200000000     0          
O        O      0.339850000000     0.561350000000     0.339800000000     0          
O        O      0.398800000000     0.549150000000     0.330400000000     0          
O        O      0.356700000000     0.623300000000     0.336700000000     0          
O        O      0.340100000000     0.686100000000     0.338700000000     0          
O        O      0.347350000000     0.659550000000     0.317100000000     0          
O        O      0.399950000000     0.669600000000     0.330900000000     0          
O        O      0.457200000000     0.562900000000     0.339700000000     0          
O        O      0.439600000000     0.604400000000     0.357000000000     0          
O        O      0.448500000000     0.626650000000     0.334900000000     0          
O        O      0.292350000000     0.561200000000     0.252500000000     0          
O        O      0.312600000000     0.599450000000     0.234500000000     0          
O        O      0.297050000000     0.625850000000     0.255600000000     0          
O        O      0.400900000000     0.622950000000     0.253800000000     0          
O        O      0.377200000000     0.588550000000     0.235400000000     0          
O        O      0.441650000000     0.601100000000     0.236700000000     0          
O        O      0.409400000000     0.687200000000     0.252900000000     0          
O        O      0.350500000000     0.662950000000     0.258500000000     0          
O        O      0.400300000000     0.658150000000     0.274000000000     0          
O        O      0.440450000000     0.694200000000     0.359200000000     0          
O        O      0.459500000000     0.691400000000     0.336400000000     0          
O        O      0.292150000000     0.710100000000     0.381300000000     0          
O        O      0.311550000000     0.710600000000     0.358400000000     0          
O        O      0.298450000000     0.653900000000     0.369200000000     0          
O        O      0.404300000000     0.703200000000     0.378600000000     0          
O        O      0.376750000000     0.706850000000     0.357000000000     0          
O        O      0.396650000000     0.648800000000     0.365400000000     0          
O        O      0.295300000000     0.686900000000     0.403600000000     0          
O        O      0.350100000000     0.702550000000     0.392000000000     0          
O        O      0.462350000000     0.706150000000     0.210000000000     0          
O        O      0.451650000000     0.648950000000     0.221000000000     0          
O        O      0.438000000000     0.705250000000     0.232300000000     0          
O        O      0.449000000000     0.663800000000     0.315200000000     0          
O        O      0.452200000000     0.540350000000     0.317300000000     0          
O        O      0.438350000000     0.554200000000     0.294300000000     0          
O        O      0.458200000000     0.601650000000     0.309100000000     0          
O        O      0.309250000000     0.555650000000     0.298000000000     0          
O        O      0.350200000000     0.599450000000     0.307700000000     0          
O        O      0.373650000000     0.547750000000     0.295800000000     0          
O        O      0.289300000000     0.600350000000     0.282100000000     0          
O        O      0.302650000000     0.539550000000     0.274800000000     0          
O        O      0.407900000000     0.688550000000     0.401800000000     0          
O        O      0.292350000000     0.691200000000     0.255000000000     0          
O        O      0.309800000000     0.694900000000     0.232000000000     0          
O        O      0.399150000000     0.598900000000     0.284100000000     0          
O        O      0.373000000000     0.709450000000     0.234600000000     0          
O        O      0.310850000000     0.600950000000     0.476900000000     0          
O        O      0.352750000000     0.625050000000     0.460700000000     0          
O        O      0.375500000000     0.592100000000     0.479600000000     0          
O        O      0.342700000000     0.560900000000     0.462300000000     0          
O        O      0.395700000000     0.625150000000     0.397900000000     0          
O        O      0.375150000000     0.654100000000     0.418000000000     0          
O        O      0.439050000000     0.642900000000     0.414600000000     0          
O        O      0.311900000000     0.607400000000     0.353200000000     0          
O        O      0.375200000000     0.592050000000     0.356500000000     0          
O        O      0.311550000000     0.638450000000     0.418600000000     0          
O        O      0.297000000000     0.624900000000     0.395800000000     0          
O        O      0.309150000000     0.643750000000     0.298500000000     0          
O        O      0.304550000000     0.661000000000     0.275600000000     0          
O        O      0.311450000000     0.713900000000     0.477700000000     0          
O        O      0.339750000000     0.688600000000     0.458300000000     0          
O        O      0.375450000000     0.699700000000     0.477900000000     0          
O        O      0.440300000000     0.602350000000     0.479300000000     0          
O        O      0.447700000000     0.625850000000     0.457100000000     0          
O        O      0.458000000000     0.562300000000     0.461500000000     0          
O        O      0.348350000000     0.599050000000     0.214400000000     0          
O        O      0.354950000000     0.647950000000     0.230000000000     0          
O        O      0.447950000000     0.587400000000     0.213400000000     0          
O        O      0.309100000000     0.655950000000     0.175300000000     0          
O        O      0.304500000000     0.640750000000     0.152100000000     0          
O        O      0.288400000000     0.596950000000     0.168900000000     0          
O        O      0.439750000000     0.594500000000     0.113900000000     0          
O        O      0.448550000000     0.651100000000     0.102300000000     0          
O        O      0.459650000000     0.593800000000     0.091300000000     0          
O        O      0.438500000000     0.641250000000     0.171300000000     0          
O        O      0.453500000000     0.624050000000     0.193800000000     0          
O        O      0.454650000000     0.687100000000     0.187300000000     0          
O        O      0.438900000000     0.645200000000     0.292700000000     0          
O        O      0.373950000000     0.650400000000     0.295600000000     0          
O        O      0.400400000000     0.705400000000     0.499900000000     0          
O        O      0.400250000000     0.647250000000     0.488800000000     0          
O        O      0.439950000000     0.695200000000     0.481400000000     0          
O        O      0.449500000000     0.662250000000     0.437200000000     0          
O        O      0.397750000000     0.665500000000     0.451600000000     0          
O        O      0.455200000000     0.691100000000     0.458300000000     0          
O        O      0.343300000000     0.627750000000     0.193000000000     0          
O        O      0.374250000000     0.651600000000     0.173800000000     0          
O        O      0.346550000000     0.692550000000     0.189400000000     0          
O        O      0.458500000000     0.600000000000     0.431200000000     0          
O        O      0.402400000000     0.658700000000     0.152500000000     0          
O        O      0.396000000000     0.598900000000     0.162000000000     0          
O        O      0.312350000000     0.586600000000     0.110200000000     0          
O        O      0.335750000000     0.645050000000     0.104800000000     0          
O        O      0.355100000000     0.592600000000     0.092200000000     0          
O        O      0.374600000000     0.599950000000     0.115000000000     0          
O        O      0.300250000000     0.656600000000     0.488600000000     0          
O        O      0.344000000000     0.542300000000     0.439400000000     0          
O        O      0.356500000000     0.596150000000     0.426600000000     0          
O        O      0.310550000000     0.554050000000     0.419300000000     0          
O        O      0.373700000000     0.537550000000     0.418100000000     0          
O        O      0.298650000000     0.624850000000     0.129000000000     0          
O        O      0.285750000000     0.560550000000     0.129900000000     0          
O        O      0.343850000000     0.650650000000     0.438900000000     0          
O        O      0.407500000000     0.564000000000     0.131200000000     0          
O        O      0.412000000000     0.629050000000     0.131500000000     0          
O        O      0.311050000000     0.653200000000     0.054900000000     0          
O        O      0.295650000000     0.658400000000     0.031900000000     0          
O        O      0.298750000000     0.599400000000     0.042200000000     0          
O        O      0.437800000000     0.603550000000     0.994700000000     0          
O        O      0.373800000000     0.605200000000     0.989400000000     0          
O        O      0.398900000000     0.559600000000     0.397500000000     0          
O        O      0.437250000000     0.552950000000     0.416600000000     0          
O        O      0.441100000000     0.645000000000     0.049400000000     0          
O        O      0.402000000000     0.600350000000     0.039100000000     0          
O        O      0.404900000000     0.661000000000     0.030500000000     0          
O        O      0.375950000000     0.649400000000     0.051600000000     0          
O        O      0.290800000000     0.685550000000     0.010400000000     0          
O        O      0.351150000000     0.690400000000     0.067800000000     0          
O        O      0.348300000000     0.626050000000     0.071800000000     0          
O        O      0.406700000000     0.593600000000     0.377400000000     0          
O        O      0.464100000000     0.624450000000     0.070400000000     0          
O        O      0.445600000000     0.686950000000     0.067800000000     0          
O        O      0.292450000000     0.591350000000     0.375400000000     0          
O        O      0.308800000000     0.595000000000     0.990700000000     0          
O        O      0.305750000000     0.622350000000     0.012300000000     0          
O        O      0.286700000000     0.561000000000     0.009500000000     0          
O        O      0.349400000000     0.668200000000     0.018600000000     0          
O        O      0.453700000000     0.559650000000     0.071100000000     0          
O        O      0.440050000000     0.552950000000     0.047900000000     0          
O        O      0.405900000000     0.542950000000     0.027800000000     0          
O        O      0.374850000000     0.546850000000     0.048800000000     0          
O        O      0.294850000000     0.559200000000     0.396200000000     0          
O        O      0.347900000000     0.590150000000     0.387800000000     0          
O        O      0.311650000000     0.702100000000     0.112900000000     0          
O        O      0.297550000000     0.687700000000     0.135500000000     0          
O        O      0.454350000000     0.538500000000     0.439200000000     0          
O        O      0.399900000000     0.549850000000     0.451600000000     0          
O        O      0.345400000000     0.549200000000     0.019300000000     0          
O        O      0.311850000000     0.545650000000     0.055000000000     0          
O        O      0.291150000000     0.540550000000     0.032300000000     0          
O        O      0.406300000000     0.601200000000     0.077700000000     0          
O        O      0.450500000000     0.558850000000     0.192000000000     0          
O        O      0.438400000000     0.552150000000     0.168800000000     0          
O        O      0.338000000000     0.698300000000     0.091100000000     0          
O        O      0.376400000000     0.693650000000     0.110300000000     0          
O        O      0.439350000000     0.709300000000     0.112800000000     0          
O        O      0.460950000000     0.705700000000     0.090100000000     0          
O        O      0.398950000000     0.706650000000     0.083000000000     0          
O        O      0.357400000000     0.561350000000     0.071200000000     0          
O        O      0.310500000000     0.538400000000     0.175800000000     0          
O        O      0.302750000000     0.551450000000     0.152600000000     0          
O        O      0.391850000000     0.539200000000     0.152700000000     0          
O        O      0.375500000000     0.548800000000     0.175400000000     0          
O        O      0.403450000000     0.693450000000     0.132100000000     0          
O        O      0.349100000000     0.694100000000     0.213100000000     0          
O        O      0.353150000000     0.653600000000     0.136800000000     0          
O        O      0.346650000000     0.543200000000     0.135300000000     0          
O        O      0.397300000000     0.593500000000     0.198500000000     0          
O        O      0.402850000000     0.705750000000     0.200300000000     0          
O        O      0.340850000000     0.562550000000     0.194900000000     0          
T        Si     0.390700000000     0.537850000000     0.261000000000     0          
T        Si     0.360400000000     0.537750000000     0.330600000000     0          
T        Si     0.361150000000     0.659700000000     0.330800000000     0          
T        Si     0.461350000000     0.600200000000     0.344800000000     0          
T        Si     0.288100000000     0.596950000000     0.246000000000     0          
T        Si     0.408500000000     0.593300000000     0.244400000000     0          
T        Si     0.390000000000     0.657750000000     0.259800000000     0          
T        Si     0.461800000000     0.712600000000     0.348800000000     0          
T        Si     0.288150000000     0.692500000000     0.368300000000     0          
T        Si     0.404350000000     0.688050000000     0.365100000000     0          
T        Si     0.311700000000     0.712350000000     0.394100000000     0          
T        Si     0.343150000000     0.713000000000     0.349400000000     0          
T        Si     0.462700000000     0.687100000000     0.222900000000     0          
T        Si     0.439150000000     0.662600000000     0.329400000000     0          
T        Si     0.462000000000     0.562850000000     0.305700000000     0          
T        Si     0.344550000000     0.560700000000     0.304700000000     0          
T        Si     0.288000000000     0.561600000000     0.285800000000     0          
T        Si     0.389150000000     0.711300000000     0.391800000000     0          
T        Si     0.288450000000     0.712350000000     0.242700000000     0          
T        Si     0.403800000000     0.560050000000     0.287200000000     0          
T        Si     0.408050000000     0.712600000000     0.241600000000     0          
T        Si     0.345550000000     0.594950000000     0.470000000000     0          
T        Si     0.404500000000     0.652500000000     0.408100000000     0          
T        Si     0.345850000000     0.596200000000     0.346700000000     0          
T        Si     0.288550000000     0.648600000000     0.407200000000     0          
T        Si     0.288100000000     0.638850000000     0.286200000000     0          
T        Si     0.345000000000     0.712850000000     0.469700000000     0          
T        Si     0.461400000000     0.599450000000     0.466900000000     0          
T        Si     0.348100000000     0.608650000000     0.228600000000     0          
T        Si     0.460550000000     0.610950000000     0.224300000000     0          
T        Si     0.287950000000     0.635750000000     0.165300000000     0          
T        Si     0.461950000000     0.613600000000     0.104000000000     0          
T        Si     0.461550000000     0.649500000000     0.182900000000     0          
T        Si     0.403150000000     0.638150000000     0.286600000000     0          
T        Si     0.403900000000     0.686800000000     0.487000000000     0          
T        Si     0.437550000000     0.661000000000     0.451100000000     0          
T        Si     0.343300000000     0.656750000000     0.182900000000     0          
T        Si     0.461750000000     0.637750000000     0.426500000000     0          
T        Si     0.402700000000     0.637600000000     0.164900000000     0          
T        Si     0.344850000000     0.606100000000     0.105400000000     0          
T        Si     0.461200000000     0.711900000000     0.470600000000     0          
T        Si     0.461700000000     0.639550000000     0.304500000000     0          
T        Si     0.287400000000     0.694300000000     0.487000000000     0          
T        Si     0.346150000000     0.557500000000     0.425800000000     0          
T        Si     0.286950000000     0.592950000000     0.121300000000     0          
T        Si     0.346650000000     0.634850000000     0.425500000000     0          
T        Si     0.408100000000     0.596950000000     0.122900000000     0          
T        Si     0.288700000000     0.637800000000     0.044200000000     0          
T        Si     0.405900000000     0.537700000000     0.409400000000     0          
T        Si     0.405950000000     0.638950000000     0.042800000000     0          
T        Si     0.346850000000     0.654550000000     0.061500000000     0          
T        Si     0.404750000000     0.609750000000     0.364000000000     0          
T        Si     0.462500000000     0.655500000000     0.061200000000     0          
T        Si     0.288200000000     0.617500000000     0.364400000000     0          
T        Si     0.288750000000     0.618400000000     0.487300000000     0          
T        Si     0.287650000000     0.597050000000     0.003100000000     0          
T        Si     0.310550000000     0.658450000000     0.018300000000     0          
T        Si     0.388700000000     0.661550000000     0.017200000000     0          
T        Si     0.461050000000     0.538150000000     0.059100000000     0          
T        Si     0.405650000000     0.560800000000     0.040900000000     0          
T        Si     0.308000000000     0.591400000000     0.388900000000     0          
T        Si     0.288500000000     0.711700000000     0.124300000000     0          
T        Si     0.438000000000     0.537650000000     0.452600000000     0          
T        Si     0.345050000000     0.638300000000     0.304700000000     0          
T        Si     0.406500000000     0.608050000000     0.486800000000     0          
T        Si     0.361600000000     0.538300000000     0.452400000000     0          
T        Si     0.382900000000     0.538350000000     0.015900000000     0          
T        Si     0.288050000000     0.561450000000     0.044700000000     0          
T        Si     0.445800000000     0.594700000000     0.077600000000     0          
T        Si     0.358650000000     0.657200000000     0.452300000000     0          
T        Si     0.461350000000     0.539250000000     0.179900000000     0          
T        Si     0.307000000000     0.537950000000     0.018900000000     0          
T        Si     0.340350000000     0.684850000000     0.104900000000     0          
T        Si     0.462100000000     0.688700000000     0.103400000000     0          
T        Si     0.360100000000     0.711350000000     0.079900000000     0          
T        Si     0.349200000000     0.538550000000     0.059600000000     0          
T        Si     0.366750000000     0.595200000000     0.078200000000     0          
T        Si     0.387350000000     0.592250000000     0.390200000000     0          
T        Si     0.287800000000     0.557700000000     0.166000000000     0          
T        Si     0.400650000000     0.559850000000     0.164800000000     0          
T        Si     0.403150000000     0.711600000000     0.119000000000     0          
T        Si     0.436900000000     0.712150000000     0.078700000000     0          
T        Si     0.346850000000     0.686500000000     0.227400000000     0          
T        Si     0.313400000000     0.651750000000     0.138400000000     0          
T        Si     0.385350000000     0.536900000000     0.138300000000     0          
T        Si     0.308150000000     0.538550000000     0.139000000000     0          
T        Si     0.437150000000     0.590750000000     0.199400000000     0          
T        Si     0.392650000000     0.658800000000     0.138300000000     0          
T        Si     0.441750000000     0.712150000000     0.197700000000     0          
T        Si     0.363200000000     0.711000000000     0.200800000000     0          
T        Si     0.357600000000     0.596000000000     0.200200000000     0          
T        Si     0.437300000000     0.537950000000     0.330800000000     0          
T        Si     0.315300000000     0.538000000000     0.261000000000     0          
T        Si     0.344350000000     0.537500000000     0.183600000000     0          
T        Si     0.311250000000     0.660150000000     0.261100000000     0          
T        Si     0.288750000000     0.538250000000     0.408400000000     0          
T        Si     0.462350000000     0.561400000000     0.427600000000     0          
O        O      0.051450000000     0.646950000000     0.739600000000     0          
O        O      0.039100000000     0.595950000000     0.725200000000     0          
O        O      0.059850000000     0.585950000000     0.747800000000     0          
O        O      0.039850000000     0.654950000000     0.682800000000     0          
O        O      0.061350000000     0.660150000000     0.660200000000     0          
O        O      0.049150000000     0.601200000000     0.669600000000     0          
O        O      0.123300000000     0.643300000000     0.663300000000     0          
O        O      0.186100000000     0.659900000000     0.661300000000     0          
O        O      0.159550000000     0.652650000000     0.682900000000     0          
O        O      0.169600000000     0.600050000000     0.669100000000     0          
O        O      0.062900000000     0.542800000000     0.660300000000     0          
O        O      0.104400000000     0.560400000000     0.643000000000     0          
O        O      0.126650000000     0.551500000000     0.665100000000     0          
O        O      0.061200000000     0.707650000000     0.747500000000     0          
O        O      0.099450000000     0.687400000000     0.765500000000     0          
O        O      0.125850000000     0.702950000000     0.744400000000     0          
O        O      0.122950000000     0.599100000000     0.746200000000     0          
O        O      0.088550000000     0.622800000000     0.764600000000     0          
O        O      0.101100000000     0.558350000000     0.763300000000     0          
O        O      0.187200000000     0.590600000000     0.747100000000     0          
O        O      0.162950000000     0.649500000000     0.741500000000     0          
O        O      0.158150000000     0.599700000000     0.726000000000     0          
O        O      0.194200000000     0.559550000000     0.640800000000     0          
O        O      0.191400000000     0.540500000000     0.663600000000     0          
O        O      0.210100000000     0.707850000000     0.618700000000     0          
O        O      0.210600000000     0.688450000000     0.641600000000     0          
O        O      0.153900000000     0.701550000000     0.630800000000     0          
O        O      0.203200000000     0.595700000000     0.621400000000     0          
O        O      0.206850000000     0.623250000000     0.643000000000     0          
O        O      0.148800000000     0.603350000000     0.634600000000     0          
O        O      0.186900000000     0.704700000000     0.596400000000     0          
O        O      0.202550000000     0.649900000000     0.608000000000     0          
O        O      0.206150000000     0.537650000000     0.790000000000     0          
O        O      0.148950000000     0.548350000000     0.779000000000     0          
O        O      0.205250000000     0.562000000000     0.767700000000     0          
O        O      0.163800000000     0.551000000000     0.684800000000     0          
O        O      0.040350000000     0.547800000000     0.682700000000     0          
O        O      0.054200000000     0.561650000000     0.705700000000     0          
O        O      0.101650000000     0.541800000000     0.690900000000     0          
O        O      0.055650000000     0.690750000000     0.702000000000     0          
O        O      0.099450000000     0.649800000000     0.692300000000     0          
O        O      0.047750000000     0.626350000000     0.704200000000     0          
O        O      0.100350000000     0.710700000000     0.717900000000     0          
O        O      0.039550000000     0.697350000000     0.725200000000     0          
O        O      0.188550000000     0.592100000000     0.598200000000     0          
O        O      0.191200000000     0.707650000000     0.745000000000     0          
O        O      0.194900000000     0.690200000000     0.768000000000     0          
O        O      0.098900000000     0.600850000000     0.715900000000     0          
O        O      0.209450000000     0.627000000000     0.765400000000     0          
O        O      0.100950000000     0.689150000000     0.523100000000     0          
O        O      0.125050000000     0.647250000000     0.539300000000     0          
O        O      0.092100000000     0.624500000000     0.520400000000     0          
O        O      0.060900000000     0.657300000000     0.537700000000     0          
O        O      0.125150000000     0.604300000000     0.602100000000     0          
O        O      0.154100000000     0.624850000000     0.582000000000     0          
O        O      0.142900000000     0.560950000000     0.585400000000     0          
O        O      0.107400000000     0.688100000000     0.646800000000     0          
O        O      0.092050000000     0.624800000000     0.643500000000     0          
O        O      0.138450000000     0.688450000000     0.581400000000     0          
O        O      0.124900000000     0.703000000000     0.604200000000     0          
O        O      0.143750000000     0.690850000000     0.701500000000     0          
O        O      0.161000000000     0.695450000000     0.724400000000     0          
O        O      0.213900000000     0.688550000000     0.522300000000     0          
O        O      0.188600000000     0.660250000000     0.541700000000     0          
O        O      0.199700000000     0.624550000000     0.522100000000     0          
O        O      0.102350000000     0.559700000000     0.520700000000     0          
O        O      0.125850000000     0.552300000000     0.542900000000     0          
O        O      0.062300000000     0.542000000000     0.538500000000     0          
O        O      0.099050000000     0.651650000000     0.785600000000     0          
O        O      0.147950000000     0.645050000000     0.770000000000     0          
O        O      0.087400000000     0.552050000000     0.786600000000     0          
O        O      0.155950000000     0.690900000000     0.824700000000     0          
O        O      0.140750000000     0.695500000000     0.847900000000     0          
O        O      0.096950000000     0.711600000000     0.831100000000     0          
O        O      0.094500000000     0.560250000000     0.886100000000     0          
O        O      0.151100000000     0.551450000000     0.897700000000     0          
O        O      0.093800000000     0.540350000000     0.908700000000     0          
O        O      0.141250000000     0.561500000000     0.828700000000     0          
O        O      0.124050000000     0.546500000000     0.806200000000     0          
O        O      0.187100000000     0.545350000000     0.812700000000     0          
O        O      0.145200000000     0.561100000000     0.707300000000     0          
O        O      0.150400000000     0.626050000000     0.704400000000     0          
O        O      0.205400000000     0.599600000000     0.500100000000     0          
O        O      0.147250000000     0.599750000000     0.511200000000     0          
O        O      0.195200000000     0.560050000000     0.518600000000     0          
O        O      0.162250000000     0.550500000000     0.562800000000     0          
O        O      0.165500000000     0.602250000000     0.548400000000     0          
O        O      0.191100000000     0.544800000000     0.541700000000     0          
O        O      0.127750000000     0.656700000000     0.807000000000     0          
O        O      0.151600000000     0.625750000000     0.826200000000     0          
O        O      0.192550000000     0.653450000000     0.810600000000     0          
O        O      0.100000000000     0.541500000000     0.568800000000     0          
O        O      0.158700000000     0.597600000000     0.847500000000     0          
O        O      0.098900000000     0.604000000000     0.838000000000     0          
O        O      0.086600000000     0.687650000000     0.889800000000     0          
O        O      0.145050000000     0.664250000000     0.895200000000     0          
O        O      0.092600000000     0.644900000000     0.907800000000     0          
O        O      0.099950000000     0.625400000000     0.885000000000     0          
O        O      0.156600000000     0.699750000000     0.511400000000     0          
O        O      0.042300000000     0.656000000000     0.560600000000     0          
O        O      0.096150000000     0.643500000000     0.573400000000     0          
O        O      0.054050000000     0.689450000000     0.580700000000     0          
O        O      0.037550000000     0.626300000000     0.581900000000     0          
O        O      0.124850000000     0.701350000000     0.871000000000     0          
O        O      0.060550000000     0.714250000000     0.870100000000     0          
O        O      0.150650000000     0.656150000000     0.561100000000     0          
O        O      0.064000000000     0.592500000000     0.868800000000     0          
O        O      0.129050000000     0.588000000000     0.868500000000     0          
O        O      0.153200000000     0.688950000000     0.945100000000     0          
O        O      0.158400000000     0.704350000000     0.968100000000     0          
O        O      0.099400000000     0.701250000000     0.957800000000     0          
O        O      0.103550000000     0.562200000000     0.005300000000     0          
O        O      0.105200000000     0.626200000000     0.010600000000     0          
O        O      0.059600000000     0.601100000000     0.602500000000     0          
O        O      0.052950000000     0.562750000000     0.583400000000     0          
O        O      0.145000000000     0.558900000000     0.950600000000     0          
O        O      0.100350000000     0.598000000000     0.960900000000     0          
O        O      0.161000000000     0.595100000000     0.969500000000     0          
O        O      0.149400000000     0.624050000000     0.948400000000     0          
O        O      0.185550000000     0.709200000000     0.989600000000     0          
O        O      0.190400000000     0.648850000000     0.932200000000     0          
O        O      0.126050000000     0.651700000000     0.928200000000     0          
O        O      0.093600000000     0.593300000000     0.622600000000     0          
O        O      0.124450000000     0.535900000000     0.929600000000     0          
O        O      0.186950000000     0.554400000000     0.932200000000     0          
O        O      0.091350000000     0.707550000000     0.624600000000     0          
O        O      0.095000000000     0.691200000000     0.009300000000     0          
O        O      0.122350000000     0.694250000000     0.987700000000     0          
O        O      0.061000000000     0.713300000000     0.990500000000     0          
O        O      0.168200000000     0.650600000000     0.981400000000     0          
O        O      0.059650000000     0.546300000000     0.928900000000     0          
O        O      0.052950000000     0.559950000000     0.952100000000     0          
O        O      0.042950000000     0.594100000000     0.972200000000     0          
O        O      0.046850000000     0.625150000000     0.951200000000     0          
O        O      0.059200000000     0.705150000000     0.603800000000     0          
O        O      0.090150000000     0.652100000000     0.612200000000     0          
O        O      0.202100000000     0.688350000000     0.887100000000     0          
O        O      0.187700000000     0.702450000000     0.864500000000     0          
O        O      0.038500000000     0.545650000000     0.560800000000     0          
O        O      0.049850000000     0.600100000000     0.548400000000     0          
O        O      0.049200000000     0.654600000000     0.980700000000     0          
O        O      0.045650000000     0.688150000000     0.945000000000     0          
O        O      0.040550000000     0.708850000000     0.967700000000     0          
O        O      0.101200000000     0.593700000000     0.922300000000     0          
O        O      0.058850000000     0.549500000000     0.808000000000     0          
O        O      0.052150000000     0.561600000000     0.831200000000     0          
O        O      0.198300000000     0.662000000000     0.908900000000     0          
O        O      0.193650000000     0.623600000000     0.889700000000     0          
O        O      0.209300000000     0.560650000000     0.887200000000     0          
O        O      0.205700000000     0.539050000000     0.909900000000     0          
O        O      0.206650000000     0.601050000000     0.917000000000     0          
O        O      0.061350000000     0.642600000000     0.928800000000     0          
O        O      0.038400000000     0.689500000000     0.824200000000     0          
O        O      0.051450000000     0.697250000000     0.847400000000     0          
O        O      0.039200000000     0.608150000000     0.847300000000     0          
O        O      0.048800000000     0.624500000000     0.824600000000     0          
O        O      0.193450000000     0.596550000000     0.867900000000     0          
O        O      0.194100000000     0.650900000000     0.786900000000     0          
O        O      0.153600000000     0.646850000000     0.863200000000     0          
O        O      0.043200000000     0.653350000000     0.864700000000     0          
O        O      0.093500000000     0.602700000000     0.801500000000     0          
O        O      0.205750000000     0.597150000000     0.799700000000     0          
O        O      0.062550000000     0.659150000000     0.805100000000     0          
T        Si     0.037850000000     0.609300000000     0.739000000000     0          
T        Si     0.037750000000     0.639600000000     0.669400000000     0          
T        Si     0.159700000000     0.638850000000     0.669200000000     0          
T        Si     0.100200000000     0.538650000000     0.655200000000     0          
T        Si     0.096950000000     0.711900000000     0.754000000000     0          
T        Si     0.093300000000     0.591500000000     0.755600000000     0          
T        Si     0.157750000000     0.610000000000     0.740200000000     0          
T        Si     0.212600000000     0.538200000000     0.651200000000     0          
T        Si     0.192500000000     0.711850000000     0.631700000000     0          
T        Si     0.188050000000     0.595650000000     0.634900000000     0          
T        Si     0.212350000000     0.688300000000     0.605900000000     0          
T        Si     0.213000000000     0.656850000000     0.650600000000     0          
T        Si     0.187100000000     0.537300000000     0.777100000000     0          
T        Si     0.162600000000     0.560850000000     0.670600000000     0          
T        Si     0.062850000000     0.538000000000     0.694300000000     0          
T        Si     0.060700000000     0.655450000000     0.695300000000     0          
T        Si     0.061600000000     0.712000000000     0.714200000000     0          
T        Si     0.211300000000     0.610850000000     0.608200000000     0          
T        Si     0.212350000000     0.711550000000     0.757300000000     0          
T        Si     0.060050000000     0.596200000000     0.712800000000     0          
T        Si     0.212600000000     0.591950000000     0.758400000000     0          
T        Si     0.094950000000     0.654450000000     0.530000000000     0          
T        Si     0.152500000000     0.595500000000     0.591900000000     0          
T        Si     0.096200000000     0.654150000000     0.653300000000     0          
T        Si     0.148600000000     0.711450000000     0.592800000000     0          
T        Si     0.138850000000     0.711900000000     0.713800000000     0          
T        Si     0.212850000000     0.655000000000     0.530300000000     0          
T        Si     0.099450000000     0.538600000000     0.533100000000     0          
T        Si     0.108650000000     0.651900000000     0.771400000000     0          
T        Si     0.110950000000     0.539450000000     0.775700000000     0          
T        Si     0.135750000000     0.712050000000     0.834700000000     0          
T        Si     0.113600000000     0.538050000000     0.896000000000     0          
T        Si     0.149500000000     0.538450000000     0.817100000000     0          
T        Si     0.138150000000     0.596850000000     0.713400000000     0          
T        Si     0.186800000000     0.596100000000     0.513000000000     0          
T        Si     0.161000000000     0.562450000000     0.548900000000     0          
T        Si     0.156750000000     0.656700000000     0.817100000000     0          
T        Si     0.137750000000     0.538250000000     0.573500000000     0          
T        Si     0.137600000000     0.597300000000     0.835100000000     0          
T        Si     0.106100000000     0.655150000000     0.894600000000     0          
T        Si     0.211900000000     0.538800000000     0.529400000000     0          
T        Si     0.139550000000     0.538300000000     0.695500000000     0          
T        Si     0.194300000000     0.712600000000     0.513000000000     0          
T        Si     0.057500000000     0.653850000000     0.574200000000     0          
T        Si     0.092950000000     0.713050000000     0.878700000000     0          
T        Si     0.134850000000     0.653350000000     0.574500000000     0          
T        Si     0.096950000000     0.591900000000     0.877100000000     0          
T        Si     0.137800000000     0.711300000000     0.955800000000     0          
T        Si     0.037700000000     0.594100000000     0.590600000000     0          
T        Si     0.138950000000     0.594050000000     0.957200000000     0          
T        Si     0.154550000000     0.653150000000     0.938500000000     0          
T        Si     0.109750000000     0.595250000000     0.636000000000     0          
T        Si     0.155500000000     0.537500000000     0.938800000000     0          
T        Si     0.117500000000     0.711800000000     0.635600000000     0          
T        Si     0.118400000000     0.711250000000     0.512700000000     0          
T        Si     0.097050000000     0.712350000000     0.996900000000     0          
T        Si     0.158450000000     0.689450000000     0.981700000000     0          
T        Si     0.161550000000     0.611300000000     0.982800000000     0          
T        Si     0.038150000000     0.538950000000     0.940900000000     0          
T        Si     0.060800000000     0.594350000000     0.959100000000     0          
T        Si     0.091400000000     0.692000000000     0.611100000000     0          
T        Si     0.211700000000     0.711500000000     0.875700000000     0          
T        Si     0.037650000000     0.562000000000     0.547400000000     0          
T        Si     0.138300000000     0.654950000000     0.695300000000     0          
T        Si     0.108050000000     0.593500000000     0.513200000000     0          
T        Si     0.038300000000     0.638400000000     0.547600000000     0          
T        Si     0.038350000000     0.617100000000     0.984100000000     0          
T        Si     0.061450000000     0.711950000000     0.955300000000     0          
T        Si     0.094700000000     0.554200000000     0.922400000000     0          
T        Si     0.157200000000     0.641350000000     0.547700000000     0          
T        Si     0.039250000000     0.538650000000     0.820100000000     0          
T        Si     0.037950000000     0.693000000000     0.981100000000     0          
T        Si     0.184850000000     0.659650000000     0.895100000000     0          
T        Si     0.188700000000     0.537900000000     0.896600000000     0          
T        Si     0.211350000000     0.639900000000     0.920100000000     0          
T        Si     0.038550000000     0.650800000000     0.940400000000     0          
T        Si     0.095200000000     0.633250000000     0.921800000000     0          
T        Si     0.092250000000     0.612650000000     0.609800000000     0          
T        Si     0.057700000000     0.712200000000     0.834000000000     0          
T        Si     0.059850000000     0.599350000000     0.835200000000     0          
T        Si     0.211600000000     0.596850000000     0.881000000000     0          
T        Si     0.212150000000     0.563100000000     0.921300000000     0          
T        Si     0.186500000000     0.653150000000     0.772600000000     0          
T        Si     0.151750000000     0.686600000000     0.861600000000     0          
T        Si     0.036900000000     0.614650000000     0.861700000000     0          
T        Si     0.038550000000     0.691850000000     0.861000000000     0          
T        Si     0.090750000000     0.562850000000     0.800600000000     0          
T        Si     0.158800000000     0.607350000000     0.861700000000     0          
T        Si     0.212150000000     0.558250000000     0.802300000000     0          
T        Si     0.211000000000     0.636800000000     0.799200000000     0          
T        Si     0.096000000000     0.642400000000     0.799800000000     0          
T        Si     0.037950000000     0.562700000000     0.669200000000     0          
T        Si     0.038000000000     0.684700000000     0.739000000000     0          
T        Si     0.037500000000     0.655650000000     0.816400000000     0          
T        Si     0.160150000000     0.688750000000     0.738900000000     0          
T        Si     0.038250000000     0.711250000000     0.591600000000     0          
T        Si     0.061400000000     0.537650000000     0.572400000000     0          
O        O      0.146950000000     0.948550000000     0.260400000000     0          
O        O      0.095950000000     0.960900000000     0.274800000000     0          
O        O      0.085950000000     0.940150000000     0.252200000000     0          
O        O      0.154950000000     0.960150000000     0.317200000000     0          
O        O      0.160150000000     0.938650000000     0.339800000000     0          
O        O      0.101200000000     0.950850000000     0.330400000000     0          
O        O      0.143300000000     0.876700000000     0.336700000000     0          
O        O      0.159900000000     0.813900000000     0.338700000000     0          
O        O      0.152650000000     0.840450000000     0.317100000000     0          
O        O      0.100050000000     0.830400000000     0.330900000000     0          
O        O      0.042800000000     0.937100000000     0.339700000000     0          
O        O      0.060400000000     0.895600000000     0.357000000000     0          
O        O      0.051500000000     0.873350000000     0.334900000000     0          
O        O      0.207650000000     0.938800000000     0.252500000000     0          
O        O      0.187400000000     0.900550000000     0.234500000000     0          
O        O      0.202950000000     0.874150000000     0.255600000000     0          
O        O      0.099100000000     0.877050000000     0.253800000000     0          
O        O      0.122800000000     0.911450000000     0.235400000000     0          
O        O      0.058350000000     0.898900000000     0.236700000000     0          
O        O      0.090600000000     0.812800000000     0.252900000000     0          
O        O      0.149500000000     0.837050000000     0.258500000000     0          
O        O      0.099700000000     0.841850000000     0.274000000000     0          
O        O      0.059550000000     0.805800000000     0.359200000000     0          
O        O      0.040500000000     0.808600000000     0.336400000000     0          
O        O      0.207850000000     0.789900000000     0.381300000000     0          
O        O      0.188450000000     0.789400000000     0.358400000000     0          
O        O      0.201550000000     0.846100000000     0.369200000000     0          
O        O      0.095700000000     0.796800000000     0.378600000000     0          
O        O      0.123250000000     0.793150000000     0.357000000000     0          
O        O      0.103350000000     0.851200000000     0.365400000000     0          
O        O      0.204700000000     0.813100000000     0.403600000000     0          
O        O      0.149900000000     0.797450000000     0.392000000000     0          
O        O      0.037650000000     0.793850000000     0.210000000000     0          
O        O      0.048350000000     0.851050000000     0.221000000000     0          
O        O      0.062000000000     0.794750000000     0.232300000000     0          
O        O      0.051000000000     0.836200000000     0.315200000000     0          
O        O      0.047800000000     0.959650000000     0.317300000000     0          
O        O      0.061650000000     0.945800000000     0.294300000000     0          
O        O      0.041800000000     0.898350000000     0.309100000000     0          
O        O      0.190750000000     0.944350000000     0.298000000000     0          
O        O      0.149800000000     0.900550000000     0.307700000000     0          
O        O      0.126350000000     0.952250000000     0.295800000000     0          
O        O      0.210700000000     0.899650000000     0.282100000000     0          
O        O      0.197350000000     0.960450000000     0.274800000000     0          
O        O      0.092100000000     0.811450000000     0.401800000000     0          
O        O      0.207650000000     0.808800000000     0.255000000000     0          
O        O      0.190200000000     0.805100000000     0.232000000000     0          
O        O      0.100850000000     0.901100000000     0.284100000000     0          
O        O      0.127000000000     0.790550000000     0.234600000000     0          
O        O      0.189150000000     0.899050000000     0.476900000000     0          
O        O      0.147250000000     0.874950000000     0.460700000000     0          
O        O      0.124500000000     0.907900000000     0.479600000000     0          
O        O      0.157300000000     0.939100000000     0.462300000000     0          
O        O      0.104300000000     0.874850000000     0.397900000000     0          
O        O      0.124850000000     0.845900000000     0.418000000000     0          
O        O      0.060950000000     0.857100000000     0.414600000000     0          
O        O      0.188100000000     0.892600000000     0.353200000000     0          
O        O      0.124800000000     0.907950000000     0.356500000000     0          
O        O      0.188450000000     0.861550000000     0.418600000000     0          
O        O      0.203000000000     0.875100000000     0.395800000000     0          
O        O      0.190850000000     0.856250000000     0.298500000000     0          
O        O      0.195450000000     0.839000000000     0.275600000000     0          
O        O      0.188550000000     0.786100000000     0.477700000000     0          
O        O      0.160250000000     0.811400000000     0.458300000000     0          
O        O      0.124550000000     0.800300000000     0.477900000000     0          
O        O      0.059700000000     0.897650000000     0.479300000000     0          
O        O      0.052300000000     0.874150000000     0.457100000000     0          
O        O      0.042000000000     0.937700000000     0.461500000000     0          
O        O      0.151650000000     0.900950000000     0.214400000000     0          
O        O      0.145050000000     0.852050000000     0.230000000000     0          
O        O      0.052050000000     0.912600000000     0.213400000000     0          
O        O      0.190900000000     0.844050000000     0.175300000000     0          
O        O      0.195500000000     0.859250000000     0.152100000000     0          
O        O      0.211600000000     0.903050000000     0.168900000000     0          
O        O      0.060250000000     0.905500000000     0.113900000000     0          
O        O      0.051450000000     0.848900000000     0.102300000000     0          
O        O      0.040350000000     0.906200000000     0.091300000000     0          
O        O      0.061500000000     0.858750000000     0.171300000000     0          
O        O      0.046500000000     0.875950000000     0.193800000000     0          
O        O      0.045350000000     0.812900000000     0.187300000000     0          
O        O      0.061100000000     0.854800000000     0.292700000000     0          
O        O      0.126050000000     0.849600000000     0.295600000000     0          
O        O      0.099600000000     0.794600000000     0.499900000000     0          
O        O      0.099750000000     0.852750000000     0.488800000000     0          
O        O      0.060050000000     0.804800000000     0.481400000000     0          
O        O      0.050500000000     0.837750000000     0.437200000000     0          
O        O      0.102250000000     0.834500000000     0.451600000000     0          
O        O      0.044800000000     0.808900000000     0.458300000000     0          
O        O      0.156700000000     0.872250000000     0.193000000000     0          
O        O      0.125750000000     0.848400000000     0.173800000000     0          
O        O      0.153450000000     0.807450000000     0.189400000000     0          
O        O      0.041500000000     0.900000000000     0.431200000000     0          
O        O      0.097600000000     0.841300000000     0.152500000000     0          
O        O      0.104000000000     0.901100000000     0.162000000000     0          
O        O      0.187650000000     0.913400000000     0.110200000000     0          
O        O      0.164250000000     0.854950000000     0.104800000000     0          
O        O      0.144900000000     0.907400000000     0.092200000000     0          
O        O      0.125400000000     0.900050000000     0.115000000000     0          
O        O      0.199750000000     0.843400000000     0.488600000000     0          
O        O      0.156000000000     0.957700000000     0.439400000000     0          
O        O      0.143500000000     0.903850000000     0.426600000000     0          
O        O      0.189450000000     0.945950000000     0.419300000000     0          
O        O      0.126300000000     0.962450000000     0.418100000000     0          
O        O      0.201350000000     0.875150000000     0.129000000000     0          
O        O      0.214250000000     0.939450000000     0.129900000000     0          
O        O      0.156150000000     0.849350000000     0.438900000000     0          
O        O      0.092500000000     0.936000000000     0.131200000000     0          
O        O      0.088000000000     0.870950000000     0.131500000000     0          
O        O      0.188950000000     0.846800000000     0.054900000000     0          
O        O      0.204350000000     0.841600000000     0.031900000000     0          
O        O      0.201250000000     0.900600000000     0.042200000000     0          
O        O      0.062200000000     0.896450000000     0.994700000000     0          
O        O      0.126200000000     0.894800000000     0.989400000000     0          
O        O      0.101100000000     0.940400000000     0.397500000000     0          
O        O      0.062750000000     0.947050000000     0.416600000000     0          
O        O      0.058900000000     0.855000000000     0.049400000000     0          
O        O      0.098000000000     0.899650000000     0.039100000000     0          
O        O      0.095100000000     0.839000000000     0.030500000000     0          
O        O      0.124050000000     0.850600000000     0.051600000000     0          
O        O      0.209200000000     0.814450000000     0.010400000000     0          
O        O      0.148850000000     0.809600000000     0.067800000000     0          
O        O      0.151700000000     0.873950000000     0.071800000000     0          
O        O      0.093300000000     0.906400000000     0.377400000000     0          
O        O      0.035900000000     0.875550000000     0.070400000000     0          
O        O      0.054400000000     0.813050000000     0.067800000000     0          
O        O      0.207550000000     0.908650000000     0.375400000000     0          
O        O      0.191200000000     0.905000000000     0.990700000000     0          
O        O      0.194250000000     0.877650000000     0.012300000000     0          
O        O      0.213300000000     0.939000000000     0.009500000000     0          
O        O      0.150600000000     0.831800000000     0.018600000000     0          
O        O      0.046300000000     0.940350000000     0.071100000000     0          
O        O      0.059950000000     0.947050000000     0.047900000000     0          
O        O      0.094100000000     0.957050000000     0.027800000000     0          
O        O      0.125150000000     0.953150000000     0.048800000000     0          
O        O      0.205150000000     0.940800000000     0.396200000000     0          
O        O      0.152100000000     0.909850000000     0.387800000000     0          
O        O      0.188350000000     0.797900000000     0.112900000000     0          
O        O      0.202450000000     0.812300000000     0.135500000000     0          
O        O      0.045650000000     0.961500000000     0.439200000000     0          
O        O      0.100100000000     0.950150000000     0.451600000000     0          
O        O      0.154600000000     0.950800000000     0.019300000000     0          
O        O      0.188150000000     0.954350000000     0.055000000000     0          
O        O      0.208850000000     0.959450000000     0.032300000000     0          
O        O      0.093700000000     0.898800000000     0.077700000000     0          
O        O      0.049500000000     0.941150000000     0.192000000000     0          
O        O      0.061600000000     0.947850000000     0.168800000000     0          
O        O      0.162000000000     0.801700000000     0.091100000000     0          
O        O      0.123600000000     0.806350000000     0.110300000000     0          
O        O      0.060650000000     0.790700000000     0.112800000000     0          
O        O      0.039050000000     0.794300000000     0.090100000000     0          
O        O      0.101050000000     0.793350000000     0.083000000000     0          
O        O      0.142600000000     0.938650000000     0.071200000000     0          
O        O      0.189500000000     0.961600000000     0.175800000000     0          
O        O      0.197250000000     0.948550000000     0.152600000000     0          
O        O      0.108150000000     0.960800000000     0.152700000000     0          
O        O      0.124500000000     0.951200000000     0.175400000000     0          
O        O      0.096550000000     0.806550000000     0.132100000000     0          
O        O      0.150900000000     0.805900000000     0.213100000000     0          
O        O      0.146850000000     0.846400000000     0.136800000000     0          
O        O      0.153350000000     0.956800000000     0.135300000000     0          
O        O      0.102700000000     0.906500000000     0.198500000000     0          
O        O      0.097150000000     0.794250000000     0.200300000000     0          
O        O      0.159150000000     0.937450000000     0.194900000000     0          
T        Si     0.109300000000     0.962150000000     0.261000000000     0          
T        Si     0.139600000000     0.962250000000     0.330600000000     0          
T        Si     0.138850000000     0.840300000000     0.330800000000     0          
T        Si     0.038650000000     0.899800000000     0.344800000000     0          
T        Si     0.211900000000     0.903050000000     0.246000000000     0          
T        Si     0.091500000000     0.906700000000     0.244400000000     0          
T        Si     0.110000000000     0.842250000000     0.259800000000     0          
T        Si     0.038200000000     0.787400000000     0.348800000000     0          
T        Si     0.211850000000     0.807500000000     0.368300000000     0          
T        Si     0.095650000000     0.811950000000     0.365100000000     0          
T        Si     0.188300000000     0.787650000000     0.394100000000     0          
T        Si     0.156850000000     0.787000000000     0.349400000000     0          
T        Si     0.037300000000     0.812900000000     0.222900000000     0          
T        Si     0.060850000000     0.837400000000     0.329400000000     0          
T        Si     0.038000000000     0.937150000000     0.305700000000     0          
T        Si     0.155450000000     0.939300000000     0.304700000000     0          
T        Si     0.212000000000     0.938400000000     0.285800000000     0          
T        Si     0.110850000000     0.788700000000     0.391800000000     0          
T        Si     0.211550000000     0.787650000000     0.242700000000     0          
T        Si     0.096200000000     0.939950000000     0.287200000000     0          
T        Si     0.091950000000     0.787400000000     0.241600000000     0          
T        Si     0.154450000000     0.905050000000     0.470000000000     0          
T        Si     0.095500000000     0.847500000000     0.408100000000     0          
T        Si     0.154150000000     0.903800000000     0.346700000000     0          
T        Si     0.211450000000     0.851400000000     0.407200000000     0          
T        Si     0.211900000000     0.861150000000     0.286200000000     0          
T        Si     0.155000000000     0.787150000000     0.469700000000     0          
T        Si     0.038600000000     0.900550000000     0.466900000000     0          
T        Si     0.151900000000     0.891350000000     0.228600000000     0          
T        Si     0.039450000000     0.889050000000     0.224300000000     0          
T        Si     0.212050000000     0.864250000000     0.165300000000     0          
T        Si     0.038050000000     0.886400000000     0.104000000000     0          
T        Si     0.038450000000     0.850500000000     0.182900000000     0          
T        Si     0.096850000000     0.861850000000     0.286600000000     0          
T        Si     0.096100000000     0.813200000000     0.487000000000     0          
T        Si     0.062450000000     0.839000000000     0.451100000000     0          
T        Si     0.156700000000     0.843250000000     0.182900000000     0          
T        Si     0.038250000000     0.862250000000     0.426500000000     0          
T        Si     0.097300000000     0.862400000000     0.164900000000     0          
T        Si     0.155150000000     0.893900000000     0.105400000000     0          
T        Si     0.038800000000     0.788100000000     0.470600000000     0          
T        Si     0.038300000000     0.860450000000     0.304500000000     0          
T        Si     0.212600000000     0.805700000000     0.487000000000     0          
T        Si     0.153850000000     0.942500000000     0.425800000000     0          
T        Si     0.213050000000     0.907050000000     0.121300000000     0          
T        Si     0.153350000000     0.865150000000     0.425500000000     0          
T        Si     0.091900000000     0.903050000000     0.122900000000     0          
T        Si     0.211300000000     0.862200000000     0.044200000000     0          
T        Si     0.094100000000     0.962300000000     0.409400000000     0          
T        Si     0.094050000000     0.861050000000     0.042800000000     0          
T        Si     0.153150000000     0.845450000000     0.061500000000     0          
T        Si     0.095250000000     0.890250000000     0.364000000000     0          
T        Si     0.037500000000     0.844500000000     0.061200000000     0          
T        Si     0.211800000000     0.882500000000     0.364400000000     0          
T        Si     0.211250000000     0.881600000000     0.487300000000     0          
T        Si     0.212350000000     0.902950000000     0.003100000000     0          
T        Si     0.189450000000     0.841550000000     0.018300000000     0          
T        Si     0.111300000000     0.838450000000     0.017200000000     0          
T        Si     0.038950000000     0.961850000000     0.059100000000     0          
T        Si     0.094350000000     0.939200000000     0.040900000000     0          
T        Si     0.192000000000     0.908600000000     0.388900000000     0          
T        Si     0.211500000000     0.788300000000     0.124300000000     0          
T        Si     0.062000000000     0.962350000000     0.452600000000     0          
T        Si     0.154950000000     0.861700000000     0.304700000000     0          
T        Si     0.093500000000     0.891950000000     0.486800000000     0          
T        Si     0.138400000000     0.961700000000     0.452400000000     0          
T        Si     0.117100000000     0.961650000000     0.015900000000     0          
T        Si     0.211950000000     0.938550000000     0.044700000000     0          
T        Si     0.054200000000     0.905300000000     0.077600000000     0          
T        Si     0.141350000000     0.842800000000     0.452300000000     0          
T        Si     0.038650000000     0.960750000000     0.179900000000     0          
T        Si     0.193000000000     0.962050000000     0.018900000000     0          
T        Si     0.159650000000     0.815150000000     0.104900000000     0          
T        Si     0.037900000000     0.811300000000     0.103400000000     0          
T        Si     0.139900000000     0.788650000000     0.079900000000     0          
T        Si     0.150800000000     0.961450000000     0.059600000000     0          
T        Si     0.133250000000     0.904800000000     0.078200000000     0          
T        Si     0.112650000000     0.907750000000     0.390200000000     0          
T        Si     0.212200000000     0.942300000000     0.166000000000     0          
T        Si     0.099350000000     0.940150000000     0.164800000000     0          
T        Si     0.096850000000     0.788400000000     0.119000000000     0          
T        Si     0.063100000000     0.787850000000     0.078700000000     0          
T        Si     0.153150000000     0.813500000000     0.227400000000     0          
T        Si     0.186600000000     0.848250000000     0.138400000000     0          
T        Si     0.114650000000     0.963100000000     0.138300000000     0          
T        Si     0.191850000000     0.961450000000     0.139000000000     0          
T        Si     0.062850000000     0.909250000000     0.199400000000     0          
T        Si     0.107350000000     0.841200000000     0.138300000000     0          
T        Si     0.058250000000     0.787850000000     0.197700000000     0          
T        Si     0.136800000000     0.789000000000     0.200800000000     0          
T        Si     0.142400000000     0.904000000000     0.200200000000     0          
T        Si     0.062700000000     0.962050000000     0.330800000000     0          
T        Si     0.184700000000     0.962000000000     0.261000000000     0          
T        Si     0.155650000000     0.962500000000     0.183600000000     0          
T        Si     0.188750000000     0.839850000000     0.261100000000     0          
T        Si     0.211250000000     0.961750000000     0.408400000000     0          
T        Si     0.037650000000     0.938600000000     0.427600000000     0          
O        O      0.448550000000     0.853050000000     0.739600000000     0          
O        O      0.460900000000     0.904050000000     0.725200000000     0          
O        O      0.440150000000     0.914050000000     0.747800000000     0          
O        O      0.460150000000     0.845050000000     0.682800000000     0          
O        O      0.438650000000     0.839850000000     0.660200000000     0          
O        O      0.450850000000     0.898800000000     0.669600000000     0          
O        O      0.376700000000     0.856700000000     0.663300000000     0          
O        O      0.313900000000     0.840100000000     0.661300000000     0          
O        O      0.340450000000     0.847350000000     0.682900000000     0          
O        O      0.330400000000     0.899950000000     0.669100000000     0          
O        O      0.437100000000     0.957200000000     0.660300000000     0          
O        O      0.395600000000     0.939600000000     0.643000000000     0          
O        O      0.373350000000     0.948500000000     0.665100000000     0          
O        O      0.438800000000     0.792350000000     0.747500000000     0          
O        O      0.400550000000     0.812600000000     0.765500000000     0          
O        O      0.374150000000     0.797050000000     0.744400000000     0          
O        O      0.377050000000     0.900900000000     0.746200000000     0          
O        O      0.411450000000     0.877200000000     0.764600000000     0          
O        O      0.398900000000     0.941650000000     0.763300000000     0          
O        O      0.312800000000     0.909400000000     0.747100000000     0          
O        O      0.337050000000     0.850500000000     0.741500000000     0          
O        O      0.341850000000     0.900300000000     0.726000000000     0          
O        O      0.305800000000     0.940450000000     0.640800000000     0          
O        O      0.308600000000     0.959500000000     0.663600000000     0          
O        O      0.289900000000     0.792150000000     0.618700000000     0          
O        O      0.289400000000     0.811550000000     0.641600000000     0          
O        O      0.346100000000     0.798450000000     0.630800000000     0          
O        O      0.296800000000     0.904300000000     0.621400000000     0          
O        O      0.293150000000     0.876750000000     0.643000000000     0          
O        O      0.351200000000     0.896650000000     0.634600000000     0          
O        O      0.313100000000     0.795300000000     0.596400000000     0          
O        O      0.297450000000     0.850100000000     0.608000000000     0          
O        O      0.293850000000     0.962350000000     0.790000000000     0          
O        O      0.351050000000     0.951650000000     0.779000000000     0          
O        O      0.294750000000     0.938000000000     0.767700000000     0          
O        O      0.336200000000     0.949000000000     0.684800000000     0          
O        O      0.459650000000     0.952200000000     0.682700000000     0          
O        O      0.445800000000     0.938350000000     0.705700000000     0          
O        O      0.398350000000     0.958200000000     0.690900000000     0          
O        O      0.444350000000     0.809250000000     0.702000000000     0          
O        O      0.400550000000     0.850200000000     0.692300000000     0          
O        O      0.452250000000     0.873650000000     0.704200000000     0          
O        O      0.399650000000     0.789300000000     0.717900000000     0          
O        O      0.460450000000     0.802650000000     0.725200000000     0          
O        O      0.311450000000     0.907900000000     0.598200000000     0          
O        O      0.308800000000     0.792350000000     0.745000000000     0          
O        O      0.305100000000     0.809800000000     0.768000000000     0          
O        O      0.401100000000     0.899150000000     0.715900000000     0          
O        O      0.290550000000     0.873000000000     0.765400000000     0          
O        O      0.399050000000     0.810850000000     0.523100000000     0          
O        O      0.374950000000     0.852750000000     0.539300000000     0          
O        O      0.407900000000     0.875500000000     0.520400000000     0          
O        O      0.439100000000     0.842700000000     0.537700000000     0          
O        O      0.374850000000     0.895700000000     0.602100000000     0          
O        O      0.345900000000     0.875150000000     0.582000000000     0          
O        O      0.357100000000     0.939050000000     0.585400000000     0          
O        O      0.392600000000     0.811900000000     0.646800000000     0          
O        O      0.407950000000     0.875200000000     0.643500000000     0          
O        O      0.361550000000     0.811550000000     0.581400000000     0          
O        O      0.375100000000     0.797000000000     0.604200000000     0          
O        O      0.356250000000     0.809150000000     0.701500000000     0          
O        O      0.339000000000     0.804550000000     0.724400000000     0          
O        O      0.286100000000     0.811450000000     0.522300000000     0          
O        O      0.311400000000     0.839750000000     0.541700000000     0          
O        O      0.300300000000     0.875450000000     0.522100000000     0          
O        O      0.397650000000     0.940300000000     0.520700000000     0          
O        O      0.374150000000     0.947700000000     0.542900000000     0          
O        O      0.437700000000     0.958000000000     0.538500000000     0          
O        O      0.400950000000     0.848350000000     0.785600000000     0          
O        O      0.352050000000     0.854950000000     0.770000000000     0          
O        O      0.412600000000     0.947950000000     0.786600000000     0          
O        O      0.344050000000     0.809100000000     0.824700000000     0          
O        O      0.359250000000     0.804500000000     0.847900000000     0          
O        O      0.403050000000     0.788400000000     0.831100000000     0          
O        O      0.405500000000     0.939750000000     0.886100000000     0          
O        O      0.348900000000     0.948550000000     0.897700000000     0          
O        O      0.406200000000     0.959650000000     0.908700000000     0          
O        O      0.358750000000     0.938500000000     0.828700000000     0          
O        O      0.375950000000     0.953500000000     0.806200000000     0          
O        O      0.312900000000     0.954650000000     0.812700000000     0          
O        O      0.354800000000     0.938900000000     0.707300000000     0          
O        O      0.349600000000     0.873950000000     0.704400000000     0          
O        O      0.294600000000     0.900400000000     0.500100000000     0          
O        O      0.352750000000     0.900250000000     0.511200000000     0          
O        O      0.304800000000     0.939950000000     0.518600000000     0          
O        O      0.337750000000     0.949500000000     0.562800000000     0          
O        O      0.334500000000     0.897750000000     0.548400000000     0          
O        O      0.308900000000     0.955200000000     0.541700000000     0          
O        O      0.372250000000     0.843300000000     0.807000000000     0          
O        O      0.348400000000     0.874250000000     0.826200000000     0          
O        O      0.307450000000     0.846550000000     0.810600000000     0          
O        O      0.400000000000     0.958500000000     0.568800000000     0          
O        O      0.341300000000     0.902400000000     0.847500000000     0          
O        O      0.401100000000     0.896000000000     0.838000000000     0          
O        O      0.413400000000     0.812350000000     0.889800000000     0          
O        O      0.354950000000     0.835750000000     0.895200000000     0          
O        O      0.407400000000     0.855100000000     0.907800000000     0          
O        O      0.400050000000     0.874600000000     0.885000000000     0          
O        O      0.343400000000     0.800250000000     0.511400000000     0          
O        O      0.457700000000     0.844000000000     0.560600000000     0          
O        O      0.403850000000     0.856500000000     0.573400000000     0          
O        O      0.445950000000     0.810550000000     0.580700000000     0          
O        O      0.462450000000     0.873700000000     0.581900000000     0          
O        O      0.375150000000     0.798650000000     0.871000000000     0          
O        O      0.439450000000     0.785750000000     0.870100000000     0          
O        O      0.349350000000     0.843850000000     0.561100000000     0          
O        O      0.436000000000     0.907500000000     0.868800000000     0          
O        O      0.370950000000     0.912000000000     0.868500000000     0          
O        O      0.346800000000     0.811050000000     0.945100000000     0          
O        O      0.341600000000     0.795650000000     0.968100000000     0          
O        O      0.400600000000     0.798750000000     0.957800000000     0          
O        O      0.396450000000     0.937800000000     0.005300000000     0          
O        O      0.394800000000     0.873800000000     0.010600000000     0          
O        O      0.440400000000     0.898900000000     0.602500000000     0          
O        O      0.447050000000     0.937250000000     0.583400000000     0          
O        O      0.355000000000     0.941100000000     0.950600000000     0          
O        O      0.399650000000     0.902000000000     0.960900000000     0          
O        O      0.339000000000     0.904900000000     0.969500000000     0          
O        O      0.350600000000     0.875950000000     0.948400000000     0          
O        O      0.314450000000     0.790800000000     0.989600000000     0          
O        O      0.309600000000     0.851150000000     0.932200000000     0          
O        O      0.373950000000     0.848300000000     0.928200000000     0          
O        O      0.406400000000     0.906700000000     0.622600000000     0          
O        O      0.375550000000     0.964100000000     0.929600000000     0          
O        O      0.313050000000     0.945600000000     0.932200000000     0          
O        O      0.408650000000     0.792450000000     0.624600000000     0          
O        O      0.405000000000     0.808800000000     0.009300000000     0          
O        O      0.377650000000     0.805750000000     0.987700000000     0          
O        O      0.439000000000     0.786700000000     0.990500000000     0          
O        O      0.331800000000     0.849400000000     0.981400000000     0          
O        O      0.440350000000     0.953700000000     0.928900000000     0          
O        O      0.447050000000     0.940050000000     0.952100000000     0          
O        O      0.457050000000     0.905900000000     0.972200000000     0          
O        O      0.453150000000     0.874850000000     0.951200000000     0          
O        O      0.440800000000     0.794850000000     0.603800000000     0          
O        O      0.409850000000     0.847900000000     0.612200000000     0          
O        O      0.297900000000     0.811650000000     0.887100000000     0          
O        O      0.312300000000     0.797550000000     0.864500000000     0          
O        O      0.461500000000     0.954350000000     0.560800000000     0          
O        O      0.450150000000     0.899900000000     0.548400000000     0          
O        O      0.450800000000     0.845400000000     0.980700000000     0          
O        O      0.454350000000     0.811850000000     0.945000000000     0          
O        O      0.459450000000     0.791150000000     0.967700000000     0          
O        O      0.398800000000     0.906300000000     0.922300000000     0          
O        O      0.441150000000     0.950500000000     0.808000000000     0          
O        O      0.447850000000     0.938400000000     0.831200000000     0          
O        O      0.301700000000     0.838000000000     0.908900000000     0          
O        O      0.306350000000     0.876400000000     0.889700000000     0          
O        O      0.290700000000     0.939350000000     0.887200000000     0          
O        O      0.294300000000     0.960950000000     0.909900000000     0          
O        O      0.293350000000     0.898950000000     0.917000000000     0          
O        O      0.438650000000     0.857400000000     0.928800000000     0          
O        O      0.461600000000     0.810500000000     0.824200000000     0          
O        O      0.448550000000     0.802750000000     0.847400000000     0          
O        O      0.460800000000     0.891850000000     0.847300000000     0          
O        O      0.451200000000     0.875500000000     0.824600000000     0          
O        O      0.306550000000     0.903450000000     0.867900000000     0          
O        O      0.305900000000     0.849100000000     0.786900000000     0          
O        O      0.346400000000     0.853150000000     0.863200000000     0          
O        O      0.456800000000     0.846650000000     0.864700000000     0          
O        O      0.406500000000     0.897300000000     0.801500000000     0          
O        O      0.294250000000     0.902850000000     0.799700000000     0          
O        O      0.437450000000     0.840850000000     0.805100000000     0          
T        Si     0.462150000000     0.890700000000     0.739000000000     0          
T        Si     0.462250000000     0.860400000000     0.669400000000     0          
T        Si     0.340300000000     0.861150000000     0.669200000000     0          
T        Si     0.399800000000     0.961350000000     0.655200000000     0          
T        Si     0.403050000000     0.788100000000     0.754000000000     0          
T        Si     0.406700000000     0.908500000000     0.755600000000     0          
T        Si     0.342250000000     0.890000000000     0.740200000000     0          
T        Si     0.287400000000     0.961800000000     0.651200000000     0          
T        Si     0.307500000000     0.788150000000     0.631700000000     0          
T        Si     0.311950000000     0.904350000000     0.634900000000     0          
T        Si     0.287650000000     0.811700000000     0.605900000000     0          
T        Si     0.287000000000     0.843150000000     0.650600000000     0          
T        Si     0.312900000000     0.962700000000     0.777100000000     0          
T        Si     0.337400000000     0.939150000000     0.670600000000     0          
T        Si     0.437150000000     0.962000000000     0.694300000000     0          
T        Si     0.439300000000     0.844550000000     0.695300000000     0          
T        Si     0.438400000000     0.788000000000     0.714200000000     0          
T        Si     0.288700000000     0.889150000000     0.608200000000     0          
T        Si     0.287650000000     0.788450000000     0.757300000000     0          
T        Si     0.439950000000     0.903800000000     0.712800000000     0          
T        Si     0.287400000000     0.908050000000     0.758400000000     0          
T        Si     0.405050000000     0.845550000000     0.530000000000     0          
T        Si     0.347500000000     0.904500000000     0.591900000000     0          
T        Si     0.403800000000     0.845850000000     0.653300000000     0          
T        Si     0.351400000000     0.788550000000     0.592800000000     0          
T        Si     0.361150000000     0.788100000000     0.713800000000     0          
T        Si     0.287150000000     0.845000000000     0.530300000000     0          
T        Si     0.400550000000     0.961400000000     0.533100000000     0          
T        Si     0.391350000000     0.848100000000     0.771400000000     0          
T        Si     0.389050000000     0.960550000000     0.775700000000     0          
T        Si     0.364250000000     0.787950000000     0.834700000000     0          
T        Si     0.386400000000     0.961950000000     0.896000000000     0          
T        Si     0.350500000000     0.961550000000     0.817100000000     0          
T        Si     0.361850000000     0.903150000000     0.713400000000     0          
T        Si     0.313200000000     0.903900000000     0.513000000000     0          
T        Si     0.339000000000     0.937550000000     0.548900000000     0          
T        Si     0.343250000000     0.843300000000     0.817100000000     0          
T        Si     0.362250000000     0.961750000000     0.573500000000     0          
T        Si     0.362400000000     0.902700000000     0.835100000000     0          
T        Si     0.393900000000     0.844850000000     0.894600000000     0          
T        Si     0.288100000000     0.961200000000     0.529400000000     0          
T        Si     0.360450000000     0.961700000000     0.695500000000     0          
T        Si     0.305700000000     0.787400000000     0.513000000000     0          
T        Si     0.442500000000     0.846150000000     0.574200000000     0          
T        Si     0.407050000000     0.786950000000     0.878700000000     0          
T        Si     0.365150000000     0.846650000000     0.574500000000     0          
T        Si     0.403050000000     0.908100000000     0.877100000000     0          
T        Si     0.362200000000     0.788700000000     0.955800000000     0          
T        Si     0.462300000000     0.905900000000     0.590600000000     0          
T        Si     0.361050000000     0.905950000000     0.957200000000     0          
T        Si     0.345450000000     0.846850000000     0.938500000000     0          
T        Si     0.390250000000     0.904750000000     0.636000000000     0          
T        Si     0.344500000000     0.962500000000     0.938800000000     0          
T        Si     0.382500000000     0.788200000000     0.635600000000     0          
T        Si     0.381600000000     0.788750000000     0.512700000000     0          
T        Si     0.402950000000     0.787650000000     0.996900000000     0          
T        Si     0.341550000000     0.810550000000     0.981700000000     0          
T        Si     0.338450000000     0.888700000000     0.982800000000     0          
T        Si     0.461850000000     0.961050000000     0.940900000000     0          
T        Si     0.439200000000     0.905650000000     0.959100000000     0          
T        Si     0.408600000000     0.808000000000     0.611100000000     0          
T        Si     0.288300000000     0.788500000000     0.875700000000     0          
T        Si     0.462350000000     0.938000000000     0.547400000000     0          
T        Si     0.361700000000     0.845050000000     0.695300000000     0          
T        Si     0.391950000000     0.906500000000     0.513200000000     0          
T        Si     0.461700000000     0.861600000000     0.547600000000     0          
T        Si     0.461650000000     0.882900000000     0.984100000000     0          
T        Si     0.438550000000     0.788050000000     0.955300000000     0          
T        Si     0.405300000000     0.945800000000     0.922400000000     0          
T        Si     0.342800000000     0.858650000000     0.547700000000     0          
T        Si     0.460750000000     0.961350000000     0.820100000000     0          
T        Si     0.462050000000     0.807000000000     0.981100000000     0          
T        Si     0.315150000000     0.840350000000     0.895100000000     0          
T        Si     0.311300000000     0.962100000000     0.896600000000     0          
T        Si     0.288650000000     0.860100000000     0.920100000000     0          
T        Si     0.461450000000     0.849200000000     0.940400000000     0          
T        Si     0.404800000000     0.866750000000     0.921800000000     0          
T        Si     0.407750000000     0.887350000000     0.609800000000     0          
T        Si     0.442300000000     0.787800000000     0.834000000000     0          
T        Si     0.440150000000     0.900650000000     0.835200000000     0          
T        Si     0.288400000000     0.903150000000     0.881000000000     0          
T        Si     0.287850000000     0.936900000000     0.921300000000     0          
T        Si     0.313500000000     0.846850000000     0.772600000000     0          
T        Si     0.348250000000     0.813400000000     0.861600000000     0          
T        Si     0.463100000000     0.885350000000     0.861700000000     0          
T        Si     0.461450000000     0.808150000000     0.861000000000     0          
T        Si     0.409250000000     0.937150000000     0.800600000000     0          
T        Si     0.341200000000     0.892650000000     0.861700000000     0          
T        Si     0.287850000000     0.941750000000     0.802300000000     0          
T        Si     0.289000000000     0.863200000000     0.799200000000     0          
T        Si     0.404000000000     0.857600000000     0.799800000000     0          
T        Si     0.462050000000     0.937300000000     0.669200000000     0          
T        Si     0.462000000000     0.815300000000     0.739000000000     0          
T        Si     0.462500000000     0.844350000000     0.816400000000     0          
T        Si     0.339850000000     0.811250000000     0.738900000000     0          
T        Si     0.461750000000     0.788750000000     0.591600000000     0          
T        Si     0.438600000000     0.962350000000     0.572400000000     0          
O        O      0.646950000000     0.051450000000     0.260400000000     0          
O        O      0.595950000000     0.039100000000     0.274800000000     0          
O        O      0.608700000000     0.000000000000     0.256200000000     0          
O        O      0.585950000000     0.059850000000     0.252200000000     0          
O        O      0.654950000000     0.039850000000     0.317200000000     0          
O        O      0.660150000000     0.061350000000     0.339800000000     0          
O        O      0.641850000000     0.000000000000     0.335500000000     0          
O        O      0.601200000000     0.049150000000     0.330400000000     0          
O        O      0.643300000000     0.123300000000     0.336700000000     0          
O        O      0.659900000000     0.186100000000     0.338700000000     0          
O        O      0.652650000000     0.159550000000     0.317100000000     0          
O        O      0.600050000000     0.169600000000     0.330900000000     0          
O        O      0.542800000000     0.062900000000     0.339700000000     0          
O        O      0.500000000000     0.107000000000     0.347800000000     0          
O        O      0.560400000000     0.104400000000     0.357000000000     0          
O        O      0.551500000000     0.126650000000     0.334900000000     0          
O        O      0.707650000000     0.061200000000     0.252500000000     0          
O        O      0.750000000000     0.101150000000     0.241700000000     0          
O        O      0.687400000000     0.099450000000     0.234500000000     0          
O        O      0.702950000000     0.125850000000     0.255600000000     0          
O        O      0.599100000000     0.122950000000     0.253800000000     0          
O        O      0.622800000000     0.088550000000     0.235400000000     0          
O        O      0.558350000000     0.101100000000     0.236700000000     0          
O        O      0.590600000000     0.187200000000     0.252900000000     0          
O        O      0.649500000000     0.162950000000     0.258500000000     0          
O        O      0.599700000000     0.158150000000     0.274000000000     0          
O        O      0.551450000000     0.250000000000     0.346700000000     0          
O        O      0.559550000000     0.194200000000     0.359200000000     0          
O        O      0.500000000000     0.214200000000     0.353200000000     0          
O        O      0.540500000000     0.191400000000     0.336400000000     0          
O        O      0.750000000000     0.195150000000     0.363900000000     0          
O        O      0.707850000000     0.210100000000     0.381300000000     0          
O        O      0.688450000000     0.210600000000     0.358400000000     0          
O        O      0.701550000000     0.153900000000     0.369200000000     0          
O        O      0.595700000000     0.203200000000     0.378600000000     0          
O        O      0.623250000000     0.206850000000     0.357000000000     0          
O        O      0.603350000000     0.148800000000     0.365400000000     0          
O        O      0.690550000000     0.250000000000     0.399000000000     0          
O        O      0.704700000000     0.186900000000     0.403600000000     0          
O        O      0.649900000000     0.202550000000     0.392000000000     0          
O        O      0.655750000000     0.250000000000     0.343800000000     0          
O        O      0.500000000000     0.187900000000     0.228200000000     0          
O        O      0.537650000000     0.206150000000     0.210000000000     0          
O        O      0.548350000000     0.148950000000     0.221000000000     0          
O        O      0.562000000000     0.205250000000     0.232300000000     0          
O        O      0.551000000000     0.163800000000     0.315200000000     0          
O        O      0.500000000000     0.055350000000     0.302000000000     0          
O        O      0.547800000000     0.040350000000     0.317300000000     0          
O        O      0.561650000000     0.054200000000     0.294300000000     0          
O        O      0.541800000000     0.101650000000     0.309100000000     0          
O        O      0.690750000000     0.055650000000     0.298000000000     0          
O        O      0.649800000000     0.099450000000     0.307700000000     0          
O        O      0.626350000000     0.047750000000     0.295800000000     0          
O        O      0.750000000000     0.050900000000     0.288300000000     0          
O        O      0.710700000000     0.100350000000     0.282100000000     0          
O        O      0.697350000000     0.039550000000     0.274800000000     0          
O        O      0.605400000000     0.250000000000     0.395100000000     0          
O        O      0.592100000000     0.188550000000     0.401800000000     0          
O        O      0.698950000000     0.250000000000     0.244700000000     0          
O        O      0.707650000000     0.191200000000     0.255000000000     0          
O        O      0.690200000000     0.194900000000     0.232000000000     0          
O        O      0.750000000000     0.213050000000     0.238600000000     0          
O        O      0.600850000000     0.098900000000     0.284100000000     0          
O        O      0.588150000000     0.250000000000     0.246700000000     0          
O        O      0.627000000000     0.209450000000     0.234600000000     0          
O        O      0.689150000000     0.100950000000     0.476900000000     0          
O        O      0.647250000000     0.125050000000     0.460700000000     0          
O        O      0.624500000000     0.092100000000     0.479600000000     0          
O        O      0.657300000000     0.060900000000     0.462300000000     0          
O        O      0.604300000000     0.125150000000     0.397900000000     0          
O        O      0.624850000000     0.154100000000     0.418000000000     0          
O        O      0.560950000000     0.142900000000     0.414600000000     0          
O        O      0.688100000000     0.107400000000     0.353200000000     0          
O        O      0.624800000000     0.092050000000     0.356500000000     0          
O        O      0.688450000000     0.138450000000     0.418600000000     0          
O        O      0.703000000000     0.124900000000     0.395800000000     0          
O        O      0.750000000000     0.144100000000     0.410900000000     0          
O        O      0.690850000000     0.143750000000     0.298500000000     0          
O        O      0.695450000000     0.161000000000     0.275600000000     0          
O        O      0.750000000000     0.149900000000     0.288200000000     0          
O        O      0.646950000000     0.250000000000     0.465100000000     0          
O        O      0.688550000000     0.213900000000     0.477700000000     0          
O        O      0.660250000000     0.188600000000     0.458300000000     0          
O        O      0.624550000000     0.199700000000     0.477900000000     0          
O        O      0.559700000000     0.102350000000     0.479300000000     0          
O        O      0.552300000000     0.125850000000     0.457100000000     0          
O        O      0.500000000000     0.107100000000     0.469700000000     0          
O        O      0.542000000000     0.062300000000     0.461500000000     0          
O        O      0.651650000000     0.099050000000     0.214400000000     0          
O        O      0.645050000000     0.147950000000     0.230000000000     0          
O        O      0.500000000000     0.106750000000     0.226200000000     0          
O        O      0.552050000000     0.087400000000     0.213400000000     0          
O        O      0.690900000000     0.155950000000     0.175300000000     0          
O        O      0.695500000000     0.140750000000     0.152100000000     0          
O        O      0.750000000000     0.148700000000     0.165100000000     0          
O        O      0.711600000000     0.096950000000     0.168900000000     0          
O        O      0.560250000000     0.094500000000     0.113900000000     0          
O        O      0.551450000000     0.151100000000     0.102300000000     0          
O        O      0.500000000000     0.114550000000     0.108500000000     0          
O        O      0.540350000000     0.093800000000     0.091300000000     0          
O        O      0.561500000000     0.141250000000     0.171300000000     0          
O        O      0.500000000000     0.145800000000     0.179000000000     0          
O        O      0.546500000000     0.124050000000     0.193800000000     0          
O        O      0.545350000000     0.187100000000     0.187300000000     0          
O        O      0.561100000000     0.145200000000     0.292700000000     0          
O        O      0.626050000000     0.150400000000     0.295600000000     0          
O        O      0.599600000000     0.205400000000     0.499900000000     0          
O        O      0.599750000000     0.147250000000     0.488800000000     0          
O        O      0.560050000000     0.195200000000     0.481400000000     0          
O        O      0.550500000000     0.162250000000     0.437200000000     0          
O        O      0.602250000000     0.165500000000     0.451600000000     0          
O        O      0.544800000000     0.191100000000     0.458300000000     0          
O        O      0.656700000000     0.127750000000     0.193000000000     0          
O        O      0.625750000000     0.151600000000     0.173800000000     0          
O        O      0.653450000000     0.192550000000     0.189400000000     0          
O        O      0.500000000000     0.145650000000     0.423200000000     0          
O        O      0.541500000000     0.100000000000     0.431200000000     0          
O        O      0.597600000000     0.158700000000     0.152500000000     0          
O        O      0.604000000000     0.098900000000     0.162000000000     0          
O        O      0.687650000000     0.086600000000     0.110200000000     0          
O        O      0.664250000000     0.145050000000     0.104800000000     0          
O        O      0.644900000000     0.092600000000     0.092200000000     0          
O        O      0.625400000000     0.099950000000     0.115000000000     0          
O        O      0.500000000000     0.210850000000     0.474200000000     0          
O        O      0.550150000000     0.250000000000     0.468800000000     0          
O        O      0.500000000000     0.147500000000     0.301400000000     0          
O        O      0.750000000000     0.193950000000     0.481700000000     0          
O        O      0.699750000000     0.156600000000     0.488600000000     0          
O        O      0.712550000000     0.212550000000     0.500000000000     0          
O        O      0.656000000000     0.042300000000     0.439400000000     0          
O        O      0.643500000000     0.096150000000     0.426600000000     0          
O        O      0.689450000000     0.054050000000     0.419300000000     0          
O        O      0.626300000000     0.037550000000     0.418100000000     0          
O        O      0.701350000000     0.124850000000     0.129000000000     0          
O        O      0.714250000000     0.060550000000     0.129900000000     0          
O        O      0.750000000000     0.099500000000     0.116100000000     0          
O        O      0.656150000000     0.150650000000     0.438900000000     0          
O        O      0.592500000000     0.064000000000     0.131200000000     0          
O        O      0.588000000000     0.129050000000     0.131500000000     0          
O        O      0.688950000000     0.153200000000     0.054900000000     0          
O        O      0.704350000000     0.158400000000     0.031900000000     0          
O        O      0.750000000000     0.140450000000     0.047800000000     0          
O        O      0.701250000000     0.099400000000     0.042200000000     0          
O        O      0.562200000000     0.103550000000     0.994700000000     0          
O        O      0.626200000000     0.105200000000     0.989400000000     0          
O        O      0.601100000000     0.059600000000     0.397500000000     0          
O        O      0.562750000000     0.052950000000     0.416600000000     0          
O        O      0.585750000000     0.000000000000     0.405500000000     0          
O        O      0.558900000000     0.145000000000     0.049400000000     0          
O        O      0.598000000000     0.100350000000     0.039100000000     0          
O        O      0.595100000000     0.161000000000     0.030500000000     0          
O        O      0.624050000000     0.149400000000     0.051600000000     0          
O        O      0.709850000000     0.250000000000     0.005900000000     0          
O        O      0.709200000000     0.185550000000     0.010400000000     0          
O        O      0.648850000000     0.190400000000     0.067800000000     0          
O        O      0.651700000000     0.126050000000     0.071800000000     0          
O        O      0.593300000000     0.093600000000     0.377400000000     0          
O        O      0.535900000000     0.124450000000     0.070400000000     0          
O        O      0.554400000000     0.186950000000     0.067800000000     0          
O        O      0.500000000000     0.164750000000     0.057200000000     0          
O        O      0.707550000000     0.091350000000     0.375400000000     0          
O        O      0.750000000000     0.117900000000     0.360000000000     0          
O        O      0.750000000000     0.116700000000     0.483700000000     0          
O        O      0.691200000000     0.095000000000     0.990700000000     0          
O        O      0.694250000000     0.122350000000     0.012300000000     0          
O        O      0.713300000000     0.061000000000     0.009500000000     0          
O        O      0.750000000000     0.108750000000     0.000400000000     0          
O        O      0.650600000000     0.168200000000     0.018600000000     0          
O        O      0.546300000000     0.059650000000     0.071100000000     0          
O        O      0.549550000000     0.000000000000     0.061400000000     0          
O        O      0.559950000000     0.052950000000     0.047900000000     0          
O        O      0.500000000000     0.039900000000     0.055800000000     0          
O        O      0.594100000000     0.042950000000     0.027800000000     0          
O        O      0.625150000000     0.046850000000     0.048800000000     0          
O        O      0.705150000000     0.059200000000     0.396200000000     0          
O        O      0.652100000000     0.090150000000     0.387800000000     0          
O        O      0.705200000000     0.250000000000     0.128000000000     0          
O        O      0.688350000000     0.202100000000     0.112900000000     0          
O        O      0.702450000000     0.187700000000     0.135500000000     0          
O        O      0.750000000000     0.206750000000     0.120700000000     0          
O        O      0.560850000000     0.000000000000     0.457600000000     0          
O        O      0.545650000000     0.038500000000     0.439200000000     0          
O        O      0.600100000000     0.049850000000     0.451600000000     0          
O        O      0.590700000000     0.090700000000     0.500000000000     0          
O        O      0.640050000000     0.000000000000     0.456600000000     0          
O        O      0.616400000000     0.000000000000     0.011700000000     0          
O        O      0.654600000000     0.049200000000     0.019300000000     0          
O        O      0.750000000000     0.060450000000     0.049300000000     0          
O        O      0.688150000000     0.045650000000     0.055000000000     0          
O        O      0.708850000000     0.040550000000     0.032300000000     0          
O        O      0.593700000000     0.101200000000     0.077700000000     0          
O        O      0.549500000000     0.058850000000     0.192000000000     0          
O        O      0.500000000000     0.046150000000     0.177000000000     0          
O        O      0.561600000000     0.052150000000     0.168800000000     0          
O        O      0.544600000000     0.000000000000     0.181800000000     0          
O        O      0.695100000000     0.000000000000     0.014300000000     0          
O        O      0.662000000000     0.198300000000     0.091100000000     0          
O        O      0.623600000000     0.193650000000     0.110300000000     0          
O        O      0.500000000000     0.188200000000     0.108100000000     0          
O        O      0.560650000000     0.209300000000     0.112800000000     0          
O        O      0.539050000000     0.205700000000     0.090100000000     0          
O        O      0.647950000000     0.250000000000     0.077400000000     0          
O        O      0.601050000000     0.206650000000     0.083000000000     0          
O        O      0.647300000000     0.000000000000     0.063300000000     0          
O        O      0.642600000000     0.061350000000     0.071200000000     0          
O        O      0.750000000000     0.044500000000     0.166600000000     0          
O        O      0.689500000000     0.038400000000     0.175800000000     0          
O        O      0.697250000000     0.051450000000     0.152600000000     0          
O        O      0.608150000000     0.039200000000     0.152700000000     0          
O        O      0.624500000000     0.048800000000     0.175400000000     0          
O        O      0.607150000000     0.250000000000     0.120800000000     0          
O        O      0.596550000000     0.193450000000     0.132100000000     0          
O        O      0.558600000000     0.250000000000     0.074100000000     0          
O        O      0.650900000000     0.194100000000     0.213100000000     0          
O        O      0.646850000000     0.153600000000     0.136800000000     0          
O        O      0.604800000000     0.000000000000     0.133800000000     0          
O        O      0.653350000000     0.043200000000     0.135300000000     0          
O        O      0.702350000000     0.000000000000     0.137900000000     0          
O        O      0.602700000000     0.093500000000     0.198500000000     0          
O        O      0.553100000000     0.250000000000     0.193300000000     0          
O        O      0.597150000000     0.205750000000     0.200300000000     0          
O        O      0.645800000000     0.250000000000     0.200600000000     0          
O        O      0.659150000000     0.062550000000     0.194900000000     0          
O        O      0.559900000000     0.000000000000     0.335400000000     0          
O        O      0.686000000000     0.000000000000     0.256300000000     0          
O        O      0.649750000000     0.000000000000     0.188400000000     0          
O        O      0.750000000000     0.039950000000     0.412100000000     0          
O        O      0.700700000000     0.000000000000     0.406400000000     0          
O        O      0.500000000000     0.054600000000     0.423200000000     0          
T        Si     0.609300000000     0.037850000000     0.261000000000     0          
T        Si     0.639600000000     0.037750000000     0.330600000000     0          
T        Si     0.638850000000     0.159700000000     0.330800000000     0          
T        Si     0.538650000000     0.100200000000     0.344800000000     0          
T        Si     0.711900000000     0.096950000000     0.246000000000     0          
T        Si     0.591500000000     0.093300000000     0.244400000000     0          
T        Si     0.610000000000     0.157750000000     0.259800000000     0          
T        Si     0.538200000000     0.212600000000     0.348800000000     0          
T        Si     0.711850000000     0.192500000000     0.368300000000     0          
T        Si     0.595650000000     0.188050000000     0.365100000000     0          
T        Si     0.688300000000     0.212350000000     0.394100000000     0          
T        Si     0.656850000000     0.213000000000     0.349400000000     0          
T        Si     0.537300000000     0.187100000000     0.222900000000     0          
T        Si     0.560850000000     0.162600000000     0.329400000000     0          
T        Si     0.538000000000     0.062850000000     0.305700000000     0          
T        Si     0.655450000000     0.060700000000     0.304700000000     0          
T        Si     0.712000000000     0.061600000000     0.285800000000     0          
T        Si     0.610850000000     0.211300000000     0.391800000000     0          
T        Si     0.711550000000     0.212350000000     0.242700000000     0          
T        Si     0.596200000000     0.060050000000     0.287200000000     0          
T        Si     0.591950000000     0.212600000000     0.241600000000     0          
T        Si     0.654450000000     0.094950000000     0.470000000000     0          
T        Si     0.595500000000     0.152500000000     0.408100000000     0          
T        Si     0.654150000000     0.096200000000     0.346700000000     0          
T        Si     0.711450000000     0.148600000000     0.407200000000     0          
T        Si     0.711900000000     0.138850000000     0.286200000000     0          
T        Si     0.655000000000     0.212850000000     0.469700000000     0          
T        Si     0.538600000000     0.099450000000     0.466900000000     0          
T        Si     0.651900000000     0.108650000000     0.228600000000     0          
T        Si     0.539450000000     0.110950000000     0.224300000000     0          
T        Si     0.712050000000     0.135750000000     0.165300000000     0          
T        Si     0.538050000000     0.113600000000     0.104000000000     0          
T        Si     0.538450000000     0.149500000000     0.182900000000     0          
T        Si     0.596850000000     0.138150000000     0.286600000000     0          
T        Si     0.596100000000     0.186800000000     0.487000000000     0          
T        Si     0.562450000000     0.161000000000     0.451100000000     0          
T        Si     0.656700000000     0.156750000000     0.182900000000     0          
T        Si     0.538250000000     0.137750000000     0.426500000000     0          
T        Si     0.597300000000     0.137600000000     0.164900000000     0          
T        Si     0.655150000000     0.106100000000     0.105400000000     0          
T        Si     0.538800000000     0.211900000000     0.470600000000     0          
T        Si     0.538300000000     0.139550000000     0.304500000000     0          
T        Si     0.712600000000     0.194300000000     0.487000000000     0          
T        Si     0.653850000000     0.057500000000     0.425800000000     0          
T        Si     0.713050000000     0.092950000000     0.121300000000     0          
T        Si     0.653350000000     0.134850000000     0.425500000000     0          
T        Si     0.591900000000     0.096950000000     0.122900000000     0          
T        Si     0.711300000000     0.137800000000     0.044200000000     0          
T        Si     0.599350000000     0.099350000000     0.000000000000     0          
T        Si     0.594100000000     0.037700000000     0.409400000000     0          
T        Si     0.594050000000     0.138950000000     0.042800000000     0          
T        Si     0.713400000000     0.213400000000     0.000000000000     0          
T        Si     0.653150000000     0.154550000000     0.061500000000     0          
T        Si     0.595250000000     0.109750000000     0.364000000000     0          
T        Si     0.537500000000     0.155500000000     0.061200000000     0          
T        Si     0.711800000000     0.117500000000     0.364400000000     0          
T        Si     0.711250000000     0.118400000000     0.487300000000     0          
T        Si     0.712350000000     0.097050000000     0.003100000000     0          
T        Si     0.689450000000     0.158450000000     0.018300000000     0          
T        Si     0.611300000000     0.161550000000     0.017200000000     0          
T        Si     0.538950000000     0.038150000000     0.059100000000     0          
T        Si     0.594350000000     0.060800000000     0.040900000000     0          
T        Si     0.692000000000     0.091400000000     0.388900000000     0          
T        Si     0.711500000000     0.211700000000     0.124300000000     0          
T        Si     0.562000000000     0.037650000000     0.452600000000     0          
T        Si     0.654950000000     0.138300000000     0.304700000000     0          
T        Si     0.593500000000     0.108050000000     0.486800000000     0          
T        Si     0.638400000000     0.038300000000     0.452400000000     0          
T        Si     0.617100000000     0.038350000000     0.015900000000     0          
T        Si     0.711950000000     0.061450000000     0.044700000000     0          
T        Si     0.554200000000     0.094700000000     0.077600000000     0          
T        Si     0.641350000000     0.157200000000     0.452300000000     0          
T        Si     0.538650000000     0.039250000000     0.179900000000     0          
T        Si     0.693000000000     0.037950000000     0.018900000000     0          
T        Si     0.659650000000     0.184850000000     0.104900000000     0          
T        Si     0.537900000000     0.188700000000     0.103400000000     0          
T        Si     0.639900000000     0.211350000000     0.079900000000     0          
T        Si     0.650800000000     0.038550000000     0.059600000000     0          
T        Si     0.633250000000     0.095200000000     0.078200000000     0          
T        Si     0.612650000000     0.092250000000     0.390200000000     0          
T        Si     0.712200000000     0.057700000000     0.166000000000     0          
T        Si     0.599350000000     0.059850000000     0.164800000000     0          
T        Si     0.596850000000     0.211600000000     0.119000000000     0          
T        Si     0.563100000000     0.212150000000     0.078700000000     0          
T        Si     0.653150000000     0.186500000000     0.227400000000     0          
T        Si     0.686600000000     0.151750000000     0.138400000000     0          
T        Si     0.614650000000     0.036900000000     0.138300000000     0          
T        Si     0.691850000000     0.038550000000     0.139000000000     0          
T        Si     0.562850000000     0.090750000000     0.199400000000     0          
T        Si     0.607350000000     0.158800000000     0.138300000000     0          
T        Si     0.558250000000     0.212150000000     0.197700000000     0          
T        Si     0.636800000000     0.211000000000     0.200800000000     0          
T        Si     0.642400000000     0.096000000000     0.200200000000     0          
T        Si     0.562700000000     0.037950000000     0.330800000000     0          
T        Si     0.684700000000     0.038000000000     0.261000000000     0          
T        Si     0.655650000000     0.037500000000     0.183600000000     0          
T        Si     0.688750000000     0.160150000000     0.261100000000     0          
T        Si     0.711250000000     0.038250000000     0.408400000000     0          
T        Si     0.537650000000     0.061400000000     0.427600000000     0          
O        O      0.551450000000     0.353050000000     0.739600000000     0          
O        O      0.539100000000     0.404050000000     0.725200000000     0          
O        O      0.500000000000     0.391300000000     0.743800000000     0          
O        O      0.559850000000     0.414050000000     0.747800000000     0          
O        O      0.539850000000     0.345050000000     0.682800000000     0          
O        O      0.561350000000     0.339850000000     0.660200000000     0          
O        O      0.500000000000     0.358150000000     0.664500000000     0          
O        O      0.549150000000     0.398800000000     0.669600000000     0          
O        O      0.623300000000     0.356700000000     0.663300000000     0          
O        O      0.686100000000     0.340100000000     0.661300000000     0          
O        O      0.659550000000     0.347350000000     0.682900000000     0          
O        O      0.669600000000     0.399950000000     0.669100000000     0          
O        O      0.562900000000     0.457200000000     0.660300000000     0          
O        O      0.607000000000     0.000000000000     0.652200000000     0          
O        O      0.604400000000     0.439600000000     0.643000000000     0          
O        O      0.626650000000     0.448500000000     0.665100000000     0          
O        O      0.561200000000     0.292350000000     0.747500000000     0          
O        O      0.601150000000     0.250000000000     0.758300000000     0          
O        O      0.599450000000     0.312600000000     0.765500000000     0          
O        O      0.625850000000     0.297050000000     0.744400000000     0          
O        O      0.622950000000     0.400900000000     0.746200000000     0          
O        O      0.588550000000     0.377200000000     0.764600000000     0          
O        O      0.601100000000     0.441650000000     0.763300000000     0          
O        O      0.687200000000     0.409400000000     0.747100000000     0          
O        O      0.662950000000     0.350500000000     0.741500000000     0          
O        O      0.658150000000     0.400300000000     0.726000000000     0          
O        O      0.750000000000     0.448550000000     0.653300000000     0          
O        O      0.694200000000     0.440450000000     0.640800000000     0          
O        O      0.714200000000     0.000000000000     0.646800000000     0          
O        O      0.691400000000     0.459500000000     0.663600000000     0          
O        O      0.695150000000     0.250000000000     0.636100000000     0          
O        O      0.710100000000     0.292150000000     0.618700000000     0          
O        O      0.710600000000     0.311550000000     0.641600000000     0          
O        O      0.653900000000     0.298450000000     0.630800000000     0          
O        O      0.703200000000     0.404300000000     0.621400000000     0          
O        O      0.706850000000     0.376750000000     0.643000000000     0          
O        O      0.648800000000     0.396650000000     0.634600000000     0          
O        O      0.750000000000     0.309450000000     0.601000000000     0          
O        O      0.686900000000     0.295300000000     0.596400000000     0          
O        O      0.702550000000     0.350100000000     0.608000000000     0          
O        O      0.750000000000     0.344250000000     0.656200000000     0          
O        O      0.687900000000     0.000000000000     0.771800000000     0          
O        O      0.706150000000     0.462350000000     0.790000000000     0          
O        O      0.648950000000     0.451650000000     0.779000000000     0          
O        O      0.705250000000     0.438000000000     0.767700000000     0          
O        O      0.663800000000     0.449000000000     0.684800000000     0          
O        O      0.555350000000     0.000000000000     0.698000000000     0          
O        O      0.540350000000     0.452200000000     0.682700000000     0          
O        O      0.554200000000     0.438350000000     0.705700000000     0          
O        O      0.601650000000     0.458200000000     0.690900000000     0          
O        O      0.555650000000     0.309250000000     0.702000000000     0          
O        O      0.599450000000     0.350200000000     0.692300000000     0          
O        O      0.547750000000     0.373650000000     0.704200000000     0          
O        O      0.550900000000     0.250000000000     0.711700000000     0          
O        O      0.600350000000     0.289300000000     0.717900000000     0          
O        O      0.539550000000     0.302650000000     0.725200000000     0          
O        O      0.750000000000     0.394600000000     0.604900000000     0          
O        O      0.688550000000     0.407900000000     0.598200000000     0          
O        O      0.750000000000     0.301050000000     0.755300000000     0          
O        O      0.691200000000     0.292350000000     0.745000000000     0          
O        O      0.694900000000     0.309800000000     0.768000000000     0          
O        O      0.713050000000     0.250000000000     0.761400000000     0          
O        O      0.598900000000     0.399150000000     0.715900000000     0          
O        O      0.750000000000     0.411850000000     0.753300000000     0          
O        O      0.709450000000     0.373000000000     0.765400000000     0          
O        O      0.600950000000     0.310850000000     0.523100000000     0          
O        O      0.625050000000     0.352750000000     0.539300000000     0          
O        O      0.592100000000     0.375500000000     0.520400000000     0          
O        O      0.560900000000     0.342700000000     0.537700000000     0          
O        O      0.625150000000     0.395700000000     0.602100000000     0          
O        O      0.654100000000     0.375150000000     0.582000000000     0          
O        O      0.642900000000     0.439050000000     0.585400000000     0          
O        O      0.607400000000     0.311900000000     0.646800000000     0          
O        O      0.592050000000     0.375200000000     0.643500000000     0          
O        O      0.638450000000     0.311550000000     0.581400000000     0          
O        O      0.624900000000     0.297000000000     0.604200000000     0          
O        O      0.644100000000     0.250000000000     0.589100000000     0          
O        O      0.643750000000     0.309150000000     0.701500000000     0          
O        O      0.661000000000     0.304550000000     0.724400000000     0          
O        O      0.649900000000     0.250000000000     0.711800000000     0          
O        O      0.750000000000     0.353050000000     0.534900000000     0          
O        O      0.713900000000     0.311450000000     0.522300000000     0          
O        O      0.688600000000     0.339750000000     0.541700000000     0          
O        O      0.699700000000     0.375450000000     0.522100000000     0          
O        O      0.602350000000     0.440300000000     0.520700000000     0          
O        O      0.625850000000     0.447700000000     0.542900000000     0          
O        O      0.607100000000     0.000000000000     0.530300000000     0          
O        O      0.562300000000     0.458000000000     0.538500000000     0          
O        O      0.599050000000     0.348350000000     0.785600000000     0          
O        O      0.647950000000     0.354950000000     0.770000000000     0          
O        O      0.606750000000     0.000000000000     0.773800000000     0          
O        O      0.587400000000     0.447950000000     0.786600000000     0          
O        O      0.655950000000     0.309100000000     0.824700000000     0          
O        O      0.640750000000     0.304500000000     0.847900000000     0          
O        O      0.648700000000     0.250000000000     0.834900000000     0          
O        O      0.596950000000     0.288400000000     0.831100000000     0          
O        O      0.594500000000     0.439750000000     0.886100000000     0          
O        O      0.651100000000     0.448550000000     0.897700000000     0          
O        O      0.614550000000     0.000000000000     0.891500000000     0          
O        O      0.593800000000     0.459650000000     0.908700000000     0          
O        O      0.641250000000     0.438500000000     0.828700000000     0          
O        O      0.645800000000     0.000000000000     0.821000000000     0          
O        O      0.624050000000     0.453500000000     0.806200000000     0          
O        O      0.687100000000     0.454650000000     0.812700000000     0          
O        O      0.645200000000     0.438900000000     0.707300000000     0          
O        O      0.650400000000     0.373950000000     0.704400000000     0          
O        O      0.705400000000     0.400400000000     0.500100000000     0          
O        O      0.647250000000     0.400250000000     0.511200000000     0          
O        O      0.695200000000     0.439950000000     0.518600000000     0          
O        O      0.662250000000     0.449500000000     0.562800000000     0          
O        O      0.665500000000     0.397750000000     0.548400000000     0          
O        O      0.691100000000     0.455200000000     0.541700000000     0          
O        O      0.627750000000     0.343300000000     0.807000000000     0          
O        O      0.651600000000     0.374250000000     0.826200000000     0          
O        O      0.692550000000     0.346550000000     0.810600000000     0          
O        O      0.645650000000     0.000000000000     0.576800000000     0          
O        O      0.600000000000     0.458500000000     0.568800000000     0          
O        O      0.658700000000     0.402400000000     0.847500000000     0          
O        O      0.598900000000     0.396000000000     0.838000000000     0          
O        O      0.586600000000     0.312350000000     0.889800000000     0          
O        O      0.645050000000     0.335750000000     0.895200000000     0          
O        O      0.592600000000     0.355100000000     0.907800000000     0          
O        O      0.599950000000     0.374600000000     0.885000000000     0          
O        O      0.710850000000     0.000000000000     0.525800000000     0          
O        O      0.750000000000     0.449850000000     0.531200000000     0          
O        O      0.647500000000     0.000000000000     0.698600000000     0          
O        O      0.693950000000     0.250000000000     0.518300000000     0          
O        O      0.656600000000     0.300250000000     0.511400000000     0          
O        O      0.712550000000     0.287450000000     0.500000000000     0          
O        O      0.542300000000     0.344000000000     0.560600000000     0          
O        O      0.596150000000     0.356500000000     0.573400000000     0          
O        O      0.554050000000     0.310550000000     0.580700000000     0          
O        O      0.537550000000     0.373700000000     0.581900000000     0          
O        O      0.624850000000     0.298650000000     0.871000000000     0          
O        O      0.560550000000     0.285750000000     0.870100000000     0          
O        O      0.599500000000     0.250000000000     0.883900000000     0          
O        O      0.650650000000     0.343850000000     0.561100000000     0          
O        O      0.564000000000     0.407500000000     0.868800000000     0          
O        O      0.629050000000     0.412000000000     0.868500000000     0          
O        O      0.653200000000     0.311050000000     0.945100000000     0          
O        O      0.658400000000     0.295650000000     0.968100000000     0          
O        O      0.640450000000     0.250000000000     0.952200000000     0          
O        O      0.599400000000     0.298750000000     0.957800000000     0          
O        O      0.603550000000     0.437800000000     0.005300000000     0          
O        O      0.605200000000     0.373800000000     0.010600000000     0          
O        O      0.559600000000     0.398900000000     0.602500000000     0          
O        O      0.552950000000     0.437250000000     0.583400000000     0          
O        O      0.500000000000     0.414250000000     0.594500000000     0          
O        O      0.645000000000     0.441100000000     0.950600000000     0          
O        O      0.600350000000     0.402000000000     0.960900000000     0          
O        O      0.661000000000     0.404900000000     0.969500000000     0          
O        O      0.649400000000     0.375950000000     0.948400000000     0          
O        O      0.750000000000     0.290150000000     0.994100000000     0          
O        O      0.685550000000     0.290800000000     0.989600000000     0          
O        O      0.690400000000     0.351150000000     0.932200000000     0          
O        O      0.626050000000     0.348300000000     0.928200000000     0          
O        O      0.593600000000     0.406700000000     0.622600000000     0          
O        O      0.624450000000     0.464100000000     0.929600000000     0          
O        O      0.686950000000     0.445600000000     0.932200000000     0          
O        O      0.664750000000     0.000000000000     0.942800000000     0          
O        O      0.591350000000     0.292450000000     0.624600000000     0          
O        O      0.617900000000     0.250000000000     0.640000000000     0          
O        O      0.616700000000     0.250000000000     0.516300000000     0          
O        O      0.595000000000     0.308800000000     0.009300000000     0          
O        O      0.622350000000     0.305750000000     0.987700000000     0          
O        O      0.561000000000     0.286700000000     0.990500000000     0          
O        O      0.608750000000     0.250000000000     0.999600000000     0          
O        O      0.668200000000     0.349400000000     0.981400000000     0          
O        O      0.559650000000     0.453700000000     0.928900000000     0          
O        O      0.500000000000     0.450450000000     0.938600000000     0          
O        O      0.552950000000     0.440050000000     0.952100000000     0          
O        O      0.539900000000     0.000000000000     0.944200000000     0          
O        O      0.542950000000     0.405900000000     0.972200000000     0          
O        O      0.546850000000     0.374850000000     0.951200000000     0          
O        O      0.559200000000     0.294850000000     0.603800000000     0          
O        O      0.590150000000     0.347900000000     0.612200000000     0          
O        O      0.750000000000     0.294800000000     0.872000000000     0          
O        O      0.702100000000     0.311650000000     0.887100000000     0          
O        O      0.687700000000     0.297550000000     0.864500000000     0          
O        O      0.706750000000     0.250000000000     0.879300000000     0          
O        O      0.500000000000     0.439150000000     0.542400000000     0          
O        O      0.538500000000     0.454350000000     0.560800000000     0          
O        O      0.549850000000     0.399900000000     0.548400000000     0          
O        O      0.590700000000     0.409300000000     0.500000000000     0          
O        O      0.500000000000     0.359950000000     0.543400000000     0          
O        O      0.500000000000     0.383600000000     0.988300000000     0          
O        O      0.549200000000     0.345400000000     0.980700000000     0          
O        O      0.560450000000     0.250000000000     0.950700000000     0          
O        O      0.545650000000     0.311850000000     0.945000000000     0          
O        O      0.540550000000     0.291150000000     0.967700000000     0          
O        O      0.601200000000     0.406300000000     0.922300000000     0          
O        O      0.558850000000     0.450500000000     0.808000000000     0          
O        O      0.546150000000     0.000000000000     0.823000000000     0          
O        O      0.552150000000     0.438400000000     0.831200000000     0          
O        O      0.500000000000     0.455400000000     0.818200000000     0          
O        O      0.500000000000     0.304900000000     0.985700000000     0          
O        O      0.698300000000     0.338000000000     0.908900000000     0          
O        O      0.693650000000     0.376400000000     0.889700000000     0          
O        O      0.688200000000     0.000000000000     0.891900000000     0          
O        O      0.709300000000     0.439350000000     0.887200000000     0          
O        O      0.705700000000     0.460950000000     0.909900000000     0          
O        O      0.750000000000     0.352050000000     0.922600000000     0          
O        O      0.706650000000     0.398950000000     0.917000000000     0          
O        O      0.500000000000     0.352700000000     0.936700000000     0          
O        O      0.561350000000     0.357400000000     0.928800000000     0          
O        O      0.544500000000     0.250000000000     0.833400000000     0          
O        O      0.538400000000     0.310500000000     0.824200000000     0          
O        O      0.551450000000     0.302750000000     0.847400000000     0          
O        O      0.539200000000     0.391850000000     0.847300000000     0          
O        O      0.548800000000     0.375500000000     0.824600000000     0          
O        O      0.750000000000     0.392850000000     0.879200000000     0          
O        O      0.693450000000     0.403450000000     0.867900000000     0          
O        O      0.750000000000     0.441400000000     0.925900000000     0          
O        O      0.694100000000     0.349100000000     0.786900000000     0          
O        O      0.653600000000     0.353150000000     0.863200000000     0          
O        O      0.500000000000     0.395200000000     0.866200000000     0          
O        O      0.543200000000     0.346650000000     0.864700000000     0          
O        O      0.500000000000     0.297650000000     0.862100000000     0          
O        O      0.593500000000     0.397300000000     0.801500000000     0          
O        O      0.750000000000     0.446900000000     0.806700000000     0          
O        O      0.705750000000     0.402850000000     0.799700000000     0          
O        O      0.750000000000     0.354200000000     0.799400000000     0          
O        O      0.562550000000     0.340850000000     0.805100000000     0          
O        O      0.500000000000     0.440100000000     0.664600000000     0          
O        O      0.500000000000     0.314000000000     0.743700000000     0          
O        O      0.500000000000     0.350250000000     0.811600000000     0          
O        O      0.539950000000     0.250000000000     0.587900000000     0          
O        O      0.500000000000     0.299300000000     0.593600000000     0          
O        O      0.554600000000     0.000000000000     0.576800000000     0          
T        Si     0.537850000000     0.390700000000     0.739000000000     0          
T        Si     0.537750000000     0.360400000000     0.669400000000     0          
T        Si     0.659700000000     0.361150000000     0.669200000000     0          
T        Si     0.600200000000     0.461350000000     0.655200000000     0          
T        Si     0.596950000000     0.288100000000     0.754000000000     0          
T        Si     0.593300000000     0.408500000000     0.755600000000     0          
T        Si     0.657750000000     0.390000000000     0.740200000000     0          
T        Si     0.712600000000     0.461800000000     0.651200000000     0          
T        Si     0.692500000000     0.288150000000     0.631700000000     0          
T        Si     0.688050000000     0.404350000000     0.634900000000     0          
T        Si     0.712350000000     0.311700000000     0.605900000000     0          
T        Si     0.713000000000     0.343150000000     0.650600000000     0          
T        Si     0.687100000000     0.462700000000     0.777100000000     0          
T        Si     0.662600000000     0.439150000000     0.670600000000     0          
T        Si     0.562850000000     0.462000000000     0.694300000000     0          
T        Si     0.560700000000     0.344550000000     0.695300000000     0          
T        Si     0.561600000000     0.288000000000     0.714200000000     0          
T        Si     0.711300000000     0.389150000000     0.608200000000     0          
T        Si     0.712350000000     0.288450000000     0.757300000000     0          
T        Si     0.560050000000     0.403800000000     0.712800000000     0          
T        Si     0.712600000000     0.408050000000     0.758400000000     0          
T        Si     0.594950000000     0.345550000000     0.530000000000     0          
T        Si     0.652500000000     0.404500000000     0.591900000000     0          
T        Si     0.596200000000     0.345850000000     0.653300000000     0          
T        Si     0.648600000000     0.288550000000     0.592800000000     0          
T        Si     0.638850000000     0.288100000000     0.713800000000     0          
T        Si     0.712850000000     0.345000000000     0.530300000000     0          
T        Si     0.599450000000     0.461400000000     0.533100000000     0          
T        Si     0.608650000000     0.348100000000     0.771400000000     0          
T        Si     0.610950000000     0.460550000000     0.775700000000     0          
T        Si     0.635750000000     0.287950000000     0.834700000000     0          
T        Si     0.613600000000     0.461950000000     0.896000000000     0          
T        Si     0.649500000000     0.461550000000     0.817100000000     0          
T        Si     0.638150000000     0.403150000000     0.713400000000     0          
T        Si     0.686800000000     0.403900000000     0.513000000000     0          
T        Si     0.661000000000     0.437550000000     0.548900000000     0          
T        Si     0.656750000000     0.343300000000     0.817100000000     0          
T        Si     0.637750000000     0.461750000000     0.573500000000     0          
T        Si     0.637600000000     0.402700000000     0.835100000000     0          
T        Si     0.606100000000     0.344850000000     0.894600000000     0          
T        Si     0.711900000000     0.461200000000     0.529400000000     0          
T        Si     0.639550000000     0.461700000000     0.695500000000     0          
T        Si     0.694300000000     0.287400000000     0.513000000000     0          
T        Si     0.557500000000     0.346150000000     0.574200000000     0          
T        Si     0.592950000000     0.286950000000     0.878700000000     0          
T        Si     0.634850000000     0.346650000000     0.574500000000     0          
T        Si     0.596950000000     0.408100000000     0.877100000000     0          
T        Si     0.637800000000     0.288700000000     0.955800000000     0          
T        Si     0.599350000000     0.400650000000     0.000000000000     0          
T        Si     0.537700000000     0.405900000000     0.590600000000     0          
T        Si     0.638950000000     0.405950000000     0.957200000000     0          
T        Si     0.713400000000     0.286600000000     0.000000000000     0          
T        Si     0.654550000000     0.346850000000     0.938500000000     0          
T        Si     0.609750000000     0.404750000000     0.636000000000     0          
T        Si     0.655500000000     0.462500000000     0.938800000000     0          
T        Si     0.617500000000     0.288200000000     0.635600000000     0          
T        Si     0.618400000000     0.288750000000     0.512700000000     0          
T        Si     0.597050000000     0.287650000000     0.996900000000     0          
T        Si     0.658450000000     0.310550000000     0.981700000000     0          
T        Si     0.661550000000     0.388700000000     0.982800000000     0          
T        Si     0.538150000000     0.461050000000     0.940900000000     0          
T        Si     0.560800000000     0.405650000000     0.959100000000     0          
T        Si     0.591400000000     0.308000000000     0.611100000000     0          
T        Si     0.711700000000     0.288500000000     0.875700000000     0          
T        Si     0.537650000000     0.438000000000     0.547400000000     0          
T        Si     0.638300000000     0.345050000000     0.695300000000     0          
T        Si     0.608050000000     0.406500000000     0.513200000000     0          
T        Si     0.538300000000     0.361600000000     0.547600000000     0          
T        Si     0.538350000000     0.382900000000     0.984100000000     0          
T        Si     0.561450000000     0.288050000000     0.955300000000     0          
T        Si     0.594700000000     0.445800000000     0.922400000000     0          
T        Si     0.657200000000     0.358650000000     0.547700000000     0          
T        Si     0.539250000000     0.461350000000     0.820100000000     0          
T        Si     0.537950000000     0.307000000000     0.981100000000     0          
T        Si     0.684850000000     0.340350000000     0.895100000000     0          
T        Si     0.688700000000     0.462100000000     0.896600000000     0          
T        Si     0.711350000000     0.360100000000     0.920100000000     0          
T        Si     0.538550000000     0.349200000000     0.940400000000     0          
T        Si     0.595200000000     0.366750000000     0.921800000000     0          
T        Si     0.592250000000     0.387350000000     0.609800000000     0          
T        Si     0.557700000000     0.287800000000     0.834000000000     0          
T        Si     0.559850000000     0.400650000000     0.835200000000     0          
T        Si     0.711600000000     0.403150000000     0.881000000000     0          
T        Si     0.712150000000     0.436900000000     0.921300000000     0          
T        Si     0.686500000000     0.346850000000     0.772600000000     0          
T        Si     0.651750000000     0.313400000000     0.861600000000     0          
T        Si     0.536900000000     0.385350000000     0.861700000000     0          
T        Si     0.538550000000     0.308150000000     0.861000000000     0          
T        Si     0.590750000000     0.437150000000     0.800600000000     0          
T        Si     0.658800000000     0.392650000000     0.861700000000     0          
T        Si     0.712150000000     0.441750000000     0.802300000000     0          
T        Si     0.711000000000     0.363200000000     0.799200000000     0          
T        Si     0.596000000000     0.357600000000     0.799800000000     0          
T        Si     0.537950000000     0.437300000000     0.669200000000     0          
T        Si     0.538000000000     0.315300000000     0.739000000000     0          
T        Si     0.537500000000     0.344350000000     0.816400000000     0          
T        Si     0.660150000000     0.311250000000     0.738900000000     0          
T        Si     0.538250000000     0.288750000000     0.591600000000     0          
T        Si     0.561400000000     0.462350000000     0.572400000000     0          
O        O      0.853050000000     0.448550000000     0.260400000000     0          
O        O      0.904050000000     0.460900000000     0.274800000000     0          
O        O      0.891300000000     0.000000000000     0.256200000000     0          
O        O      0.914050000000     0.440150000000     0.252200000000     0          
O        O      0.845050000000     0.460150000000     0.317200000000     0          
O        O      0.839850000000     0.438650000000     0.339800000000     0          
O        O      0.858150000000     0.000000000000     0.335500000000     0          
O        O      0.898800000000     0.450850000000     0.330400000000     0          
O        O      0.856700000000     0.376700000000     0.336700000000     0          
O        O      0.840100000000     0.313900000000     0.338700000000     0          
O        O      0.847350000000     0.340450000000     0.317100000000     0          
O        O      0.899950000000     0.330400000000     0.330900000000     0          
O        O      0.957200000000     0.437100000000     0.339700000000     0          
O        O      0.500000000000     0.393000000000     0.347800000000     0          
O        O      0.939600000000     0.395600000000     0.357000000000     0          
O        O      0.948500000000     0.373350000000     0.334900000000     0          
O        O      0.792350000000     0.438800000000     0.252500000000     0          
O        O      0.750000000000     0.398850000000     0.241700000000     0          
O        O      0.812600000000     0.400550000000     0.234500000000     0          
O        O      0.797050000000     0.374150000000     0.255600000000     0          
O        O      0.900900000000     0.377050000000     0.253800000000     0          
O        O      0.877200000000     0.411450000000     0.235400000000     0          
O        O      0.941650000000     0.398900000000     0.236700000000     0          
O        O      0.909400000000     0.312800000000     0.252900000000     0          
O        O      0.850500000000     0.337050000000     0.258500000000     0          
O        O      0.900300000000     0.341850000000     0.274000000000     0          
O        O      0.948550000000     0.250000000000     0.346700000000     0          
O        O      0.940450000000     0.305800000000     0.359200000000     0          
O        O      0.500000000000     0.285800000000     0.353200000000     0          
O        O      0.959500000000     0.308600000000     0.336400000000     0          
O        O      0.750000000000     0.304850000000     0.363900000000     0          
O        O      0.792150000000     0.289900000000     0.381300000000     0          
O        O      0.811550000000     0.289400000000     0.358400000000     0          
O        O      0.798450000000     0.346100000000     0.369200000000     0          
O        O      0.904300000000     0.296800000000     0.378600000000     0          
O        O      0.876750000000     0.293150000000     0.357000000000     0          
O        O      0.896650000000     0.351200000000     0.365400000000     0          
O        O      0.809450000000     0.250000000000     0.399000000000     0          
O        O      0.795300000000     0.313100000000     0.403600000000     0          
O        O      0.850100000000     0.297450000000     0.392000000000     0          
O        O      0.844250000000     0.250000000000     0.343800000000     0          
O        O      0.500000000000     0.312100000000     0.228200000000     0          
O        O      0.962350000000     0.293850000000     0.210000000000     0          
O        O      0.951650000000     0.351050000000     0.221000000000     0          
O        O      0.938000000000     0.294750000000     0.232300000000     0          
O        O      0.949000000000     0.336200000000     0.315200000000     0          
O        O      0.500000000000     0.444650000000     0.302000000000     0          
O        O      0.952200000000     0.459650000000     0.317300000000     0          
O        O      0.938350000000     0.445800000000     0.294300000000     0          
O        O      0.958200000000     0.398350000000     0.309100000000     0          
O        O      0.809250000000     0.444350000000     0.298000000000     0          
O        O      0.850200000000     0.400550000000     0.307700000000     0          
O        O      0.873650000000     0.452250000000     0.295800000000     0          
O        O      0.750000000000     0.449100000000     0.288300000000     0          
O        O      0.789300000000     0.399650000000     0.282100000000     0          
O        O      0.802650000000     0.460450000000     0.274800000000     0          
O        O      0.894600000000     0.250000000000     0.395100000000     0          
O        O      0.907900000000     0.311450000000     0.401800000000     0          
O        O      0.801050000000     0.250000000000     0.244700000000     0          
O        O      0.792350000000     0.308800000000     0.255000000000     0          
O        O      0.809800000000     0.305100000000     0.232000000000     0          
O        O      0.750000000000     0.286950000000     0.238600000000     0          
O        O      0.899150000000     0.401100000000     0.284100000000     0          
O        O      0.911850000000     0.250000000000     0.246700000000     0          
O        O      0.873000000000     0.290550000000     0.234600000000     0          
O        O      0.810850000000     0.399050000000     0.476900000000     0          
O        O      0.852750000000     0.374950000000     0.460700000000     0          
O        O      0.875500000000     0.407900000000     0.479600000000     0          
O        O      0.842700000000     0.439100000000     0.462300000000     0          
O        O      0.895700000000     0.374850000000     0.397900000000     0          
O        O      0.875150000000     0.345900000000     0.418000000000     0          
O        O      0.939050000000     0.357100000000     0.414600000000     0          
O        O      0.811900000000     0.392600000000     0.353200000000     0          
O        O      0.875200000000     0.407950000000     0.356500000000     0          
O        O      0.811550000000     0.361550000000     0.418600000000     0          
O        O      0.797000000000     0.375100000000     0.395800000000     0          
O        O      0.750000000000     0.355900000000     0.410900000000     0          
O        O      0.809150000000     0.356250000000     0.298500000000     0          
O        O      0.804550000000     0.339000000000     0.275600000000     0          
O        O      0.750000000000     0.350100000000     0.288200000000     0          
O        O      0.853050000000     0.250000000000     0.465100000000     0          
O        O      0.811450000000     0.286100000000     0.477700000000     0          
O        O      0.839750000000     0.311400000000     0.458300000000     0          
O        O      0.875450000000     0.300300000000     0.477900000000     0          
O        O      0.940300000000     0.397650000000     0.479300000000     0          
O        O      0.947700000000     0.374150000000     0.457100000000     0          
O        O      0.500000000000     0.392900000000     0.469700000000     0          
O        O      0.958000000000     0.437700000000     0.461500000000     0          
O        O      0.848350000000     0.400950000000     0.214400000000     0          
O        O      0.854950000000     0.352050000000     0.230000000000     0          
O        O      0.500000000000     0.393250000000     0.226200000000     0          
O        O      0.947950000000     0.412600000000     0.213400000000     0          
O        O      0.809100000000     0.344050000000     0.175300000000     0          
O        O      0.804500000000     0.359250000000     0.152100000000     0          
O        O      0.750000000000     0.351300000000     0.165100000000     0          
O        O      0.788400000000     0.403050000000     0.168900000000     0          
O        O      0.939750000000     0.405500000000     0.113900000000     0          
O        O      0.948550000000     0.348900000000     0.102300000000     0          
O        O      0.500000000000     0.385450000000     0.108500000000     0          
O        O      0.959650000000     0.406200000000     0.091300000000     0          
O        O      0.938500000000     0.358750000000     0.171300000000     0          
O        O      0.500000000000     0.354200000000     0.179000000000     0          
O        O      0.953500000000     0.375950000000     0.193800000000     0          
O        O      0.954650000000     0.312900000000     0.187300000000     0          
O        O      0.938900000000     0.354800000000     0.292700000000     0          
O        O      0.873950000000     0.349600000000     0.295600000000     0          
O        O      0.900400000000     0.294600000000     0.499900000000     0          
O        O      0.900250000000     0.352750000000     0.488800000000     0          
O        O      0.939950000000     0.304800000000     0.481400000000     0          
O        O      0.949500000000     0.337750000000     0.437200000000     0          
O        O      0.897750000000     0.334500000000     0.451600000000     0          
O        O      0.955200000000     0.308900000000     0.458300000000     0          
O        O      0.843300000000     0.372250000000     0.193000000000     0          
O        O      0.874250000000     0.348400000000     0.173800000000     0          
O        O      0.846550000000     0.307450000000     0.189400000000     0          
O        O      0.500000000000     0.354350000000     0.423200000000     0          
O        O      0.958500000000     0.400000000000     0.431200000000     0          
O        O      0.902400000000     0.341300000000     0.152500000000     0          
O        O      0.896000000000     0.401100000000     0.162000000000     0          
O        O      0.812350000000     0.413400000000     0.110200000000     0          
O        O      0.835750000000     0.354950000000     0.104800000000     0          
O        O      0.855100000000     0.407400000000     0.092200000000     0          
O        O      0.874600000000     0.400050000000     0.115000000000     0          
O        O      0.500000000000     0.289150000000     0.474200000000     0          
O        O      0.949850000000     0.250000000000     0.468800000000     0          
O        O      0.500000000000     0.352500000000     0.301400000000     0          
O        O      0.750000000000     0.306050000000     0.481700000000     0          
O        O      0.800250000000     0.343400000000     0.488600000000     0          
O        O      0.787450000000     0.287450000000     0.500000000000     0          
O        O      0.844000000000     0.457700000000     0.439400000000     0          
O        O      0.856500000000     0.403850000000     0.426600000000     0          
O        O      0.810550000000     0.445950000000     0.419300000000     0          
O        O      0.873700000000     0.462450000000     0.418100000000     0          
O        O      0.798650000000     0.375150000000     0.129000000000     0          
O        O      0.785750000000     0.439450000000     0.129900000000     0          
O        O      0.750000000000     0.400500000000     0.116100000000     0          
O        O      0.843850000000     0.349350000000     0.438900000000     0          
O        O      0.907500000000     0.436000000000     0.131200000000     0          
O        O      0.912000000000     0.370950000000     0.131500000000     0          
O        O      0.811050000000     0.346800000000     0.054900000000     0          
O        O      0.795650000000     0.341600000000     0.031900000000     0          
O        O      0.750000000000     0.359550000000     0.047800000000     0          
O        O      0.798750000000     0.400600000000     0.042200000000     0          
O        O      0.937800000000     0.396450000000     0.994700000000     0          
O        O      0.873800000000     0.394800000000     0.989400000000     0          
O        O      0.898900000000     0.440400000000     0.397500000000     0          
O        O      0.937250000000     0.447050000000     0.416600000000     0          
O        O      0.914250000000     0.000000000000     0.405500000000     0          
O        O      0.941100000000     0.355000000000     0.049400000000     0          
O        O      0.902000000000     0.399650000000     0.039100000000     0          
O        O      0.904900000000     0.339000000000     0.030500000000     0          
O        O      0.875950000000     0.350600000000     0.051600000000     0          
O        O      0.790150000000     0.250000000000     0.005900000000     0          
O        O      0.790800000000     0.314450000000     0.010400000000     0          
O        O      0.851150000000     0.309600000000     0.067800000000     0          
O        O      0.848300000000     0.373950000000     0.071800000000     0          
O        O      0.906700000000     0.406400000000     0.377400000000     0          
O        O      0.964100000000     0.375550000000     0.070400000000     0          
O        O      0.945600000000     0.313050000000     0.067800000000     0          
O        O      0.500000000000     0.335250000000     0.057200000000     0          
O        O      0.792450000000     0.408650000000     0.375400000000     0          
O        O      0.750000000000     0.382100000000     0.360000000000     0          
O        O      0.750000000000     0.383300000000     0.483700000000     0          
O        O      0.808800000000     0.405000000000     0.990700000000     0          
O        O      0.805750000000     0.377650000000     0.012300000000     0          
O        O      0.786700000000     0.439000000000     0.009500000000     0          
O        O      0.750000000000     0.391250000000     0.000400000000     0          
O        O      0.849400000000     0.331800000000     0.018600000000     0          
O        O      0.953700000000     0.440350000000     0.071100000000     0          
O        O      0.950450000000     0.000000000000     0.061400000000     0          
O        O      0.940050000000     0.447050000000     0.047900000000     0          
O        O      0.500000000000     0.460100000000     0.055800000000     0          
O        O      0.905900000000     0.457050000000     0.027800000000     0          
O        O      0.874850000000     0.453150000000     0.048800000000     0          
O        O      0.794850000000     0.440800000000     0.396200000000     0          
O        O      0.847900000000     0.409850000000     0.387800000000     0          
O        O      0.794800000000     0.250000000000     0.128000000000     0          
O        O      0.811650000000     0.297900000000     0.112900000000     0          
O        O      0.797550000000     0.312300000000     0.135500000000     0          
O        O      0.750000000000     0.293250000000     0.120700000000     0          
O        O      0.939150000000     0.000000000000     0.457600000000     0          
O        O      0.954350000000     0.461500000000     0.439200000000     0          
O        O      0.899900000000     0.450150000000     0.451600000000     0          
O        O      0.909300000000     0.409300000000     0.500000000000     0          
O        O      0.859950000000     0.000000000000     0.456600000000     0          
O        O      0.883600000000     0.000000000000     0.011700000000     0          
O        O      0.845400000000     0.450800000000     0.019300000000     0          
O        O      0.750000000000     0.439550000000     0.049300000000     0          
O        O      0.811850000000     0.454350000000     0.055000000000     0          
O        O      0.791150000000     0.459450000000     0.032300000000     0          
O        O      0.906300000000     0.398800000000     0.077700000000     0          
O        O      0.950500000000     0.441150000000     0.192000000000     0          
O        O      0.500000000000     0.453850000000     0.177000000000     0          
O        O      0.938400000000     0.447850000000     0.168800000000     0          
O        O      0.955400000000     0.000000000000     0.181800000000     0          
O        O      0.804900000000     0.000000000000     0.014300000000     0          
O        O      0.838000000000     0.301700000000     0.091100000000     0          
O        O      0.876400000000     0.306350000000     0.110300000000     0          
O        O      0.500000000000     0.311800000000     0.108100000000     0          
O        O      0.939350000000     0.290700000000     0.112800000000     0          
O        O      0.960950000000     0.294300000000     0.090100000000     0          
O        O      0.852050000000     0.250000000000     0.077400000000     0          
O        O      0.898950000000     0.293350000000     0.083000000000     0          
O        O      0.852700000000     0.000000000000     0.063300000000     0          
O        O      0.857400000000     0.438650000000     0.071200000000     0          
O        O      0.750000000000     0.455500000000     0.166600000000     0          
O        O      0.810500000000     0.461600000000     0.175800000000     0          
O        O      0.802750000000     0.448550000000     0.152600000000     0          
O        O      0.891850000000     0.460800000000     0.152700000000     0          
O        O      0.875500000000     0.451200000000     0.175400000000     0          
O        O      0.892850000000     0.250000000000     0.120800000000     0          
O        O      0.903450000000     0.306550000000     0.132100000000     0          
O        O      0.941400000000     0.250000000000     0.074100000000     0          
O        O      0.849100000000     0.305900000000     0.213100000000     0          
O        O      0.853150000000     0.346400000000     0.136800000000     0          
O        O      0.895200000000     0.000000000000     0.133800000000     0          
O        O      0.846650000000     0.456800000000     0.135300000000     0          
O        O      0.797650000000     0.000000000000     0.137900000000     0          
O        O      0.897300000000     0.406500000000     0.198500000000     0          
O        O      0.946900000000     0.250000000000     0.193300000000     0          
O        O      0.902850000000     0.294250000000     0.200300000000     0          
O        O      0.854200000000     0.250000000000     0.200600000000     0          
O        O      0.840850000000     0.437450000000     0.194900000000     0          
O        O      0.940100000000     0.000000000000     0.335400000000     0          
O        O      0.814000000000     0.000000000000     0.256300000000     0          
O        O      0.850250000000     0.000000000000     0.188400000000     0          
O        O      0.750000000000     0.460050000000     0.412100000000     0          
O        O      0.799300000000     0.000000000000     0.406400000000     0          
O        O      0.500000000000     0.445400000000     0.423200000000     0          
T        Si     0.890700000000     0.462150000000     0.261000000000     0          
T        Si     0.860400000000     0.462250000000     0.330600000000     0          
T        Si     0.861150000000     0.340300000000     0.330800000000     0          
T        Si     0.961350000000     0.399800000000     0.344800000000     0          
T        Si     0.788100000000     0.403050000000     0.246000000000     0          
T        Si     0.908500000000     0.406700000000     0.244400000000     0          
T        Si     0.890000000000     0.342250000000     0.259800000000     0          
T        Si     0.961800000000     0.287400000000     0.348800000000     0          
T        Si     0.788150000000     0.307500000000     0.368300000000     0          
T        Si     0.904350000000     0.311950000000     0.365100000000     0          
T        Si     0.811700000000     0.287650000000     0.394100000000     0          
T        Si     0.843150000000     0.287000000000     0.349400000000     0          
T        Si     0.962700000000     0.312900000000     0.222900000000     0          
T        Si     0.939150000000     0.337400000000     0.329400000000     0          
T        Si     0.962000000000     0.437150000000     0.305700000000     0          
T        Si     0.844550000000     0.439300000000     0.304700000000     0          
T        Si     0.788000000000     0.438400000000     0.285800000000     0          
T        Si     0.889150000000     0.288700000000     0.391800000000     0          
T        Si     0.788450000000     0.287650000000     0.242700000000     0          
T        Si     0.903800000000     0.439950000000     0.287200000000     0          
T        Si     0.908050000000     0.287400000000     0.241600000000     0          
T        Si     0.845550000000     0.405050000000     0.470000000000     0          
T        Si     0.904500000000     0.347500000000     0.408100000000     0          
T        Si     0.845850000000     0.403800000000     0.346700000000     0          
T        Si     0.788550000000     0.351400000000     0.407200000000     0          
T        Si     0.788100000000     0.361150000000     0.286200000000     0          
T        Si     0.845000000000     0.287150000000     0.469700000000     0          
T        Si     0.961400000000     0.400550000000     0.466900000000     0          
T        Si     0.848100000000     0.391350000000     0.228600000000     0          
T        Si     0.960550000000     0.389050000000     0.224300000000     0          
T        Si     0.787950000000     0.364250000000     0.165300000000     0          
T        Si     0.961950000000     0.386400000000     0.104000000000     0          
T        Si     0.961550000000     0.350500000000     0.182900000000     0          
T        Si     0.903150000000     0.361850000000     0.286600000000     0          
T        Si     0.903900000000     0.313200000000     0.487000000000     0          
T        Si     0.937550000000     0.339000000000     0.451100000000     0          
T        Si     0.843300000000     0.343250000000     0.182900000000     0          
T        Si     0.961750000000     0.362250000000     0.426500000000     0          
T        Si     0.902700000000     0.362400000000     0.164900000000     0          
T        Si     0.844850000000     0.393900000000     0.105400000000     0          
T        Si     0.961200000000     0.288100000000     0.470600000000     0          
T        Si     0.961700000000     0.360450000000     0.304500000000     0          
T        Si     0.787400000000     0.305700000000     0.487000000000     0          
T        Si     0.846150000000     0.442500000000     0.425800000000     0          
T        Si     0.786950000000     0.407050000000     0.121300000000     0          
T        Si     0.846650000000     0.365150000000     0.425500000000     0          
T        Si     0.908100000000     0.403050000000     0.122900000000     0          
T        Si     0.788700000000     0.362200000000     0.044200000000     0          
T        Si     0.900650000000     0.400650000000     0.000000000000     0          
T        Si     0.905900000000     0.462300000000     0.409400000000     0          
T        Si     0.905950000000     0.361050000000     0.042800000000     0          
T        Si     0.786600000000     0.286600000000     0.000000000000     0          
T        Si     0.846850000000     0.345450000000     0.061500000000     0          
T        Si     0.904750000000     0.390250000000     0.364000000000     0          
T        Si     0.962500000000     0.344500000000     0.061200000000     0          
T        Si     0.788200000000     0.382500000000     0.364400000000     0          
T        Si     0.788750000000     0.381600000000     0.487300000000     0          
T        Si     0.787650000000     0.402950000000     0.003100000000     0          
T        Si     0.810550000000     0.341550000000     0.018300000000     0          
T        Si     0.888700000000     0.338450000000     0.017200000000     0          
T        Si     0.961050000000     0.461850000000     0.059100000000     0          
T        Si     0.905650000000     0.439200000000     0.040900000000     0          
T        Si     0.808000000000     0.408600000000     0.388900000000     0          
T        Si     0.788500000000     0.288300000000     0.124300000000     0          
T        Si     0.938000000000     0.462350000000     0.452600000000     0          
T        Si     0.845050000000     0.361700000000     0.304700000000     0          
T        Si     0.906500000000     0.391950000000     0.486800000000     0          
T        Si     0.861600000000     0.461700000000     0.452400000000     0          
T        Si     0.882900000000     0.461650000000     0.015900000000     0          
T        Si     0.788050000000     0.438550000000     0.044700000000     0          
T        Si     0.945800000000     0.405300000000     0.077600000000     0          
T        Si     0.858650000000     0.342800000000     0.452300000000     0          
T        Si     0.961350000000     0.460750000000     0.179900000000     0          
T        Si     0.807000000000     0.462050000000     0.018900000000     0          
T        Si     0.840350000000     0.315150000000     0.104900000000     0          
T        Si     0.962100000000     0.311300000000     0.103400000000     0          
T        Si     0.860100000000     0.288650000000     0.079900000000     0          
T        Si     0.849200000000     0.461450000000     0.059600000000     0          
T        Si     0.866750000000     0.404800000000     0.078200000000     0          
T        Si     0.887350000000     0.407750000000     0.390200000000     0          
T        Si     0.787800000000     0.442300000000     0.166000000000     0          
T        Si     0.900650000000     0.440150000000     0.164800000000     0          
T        Si     0.903150000000     0.288400000000     0.119000000000     0          
T        Si     0.936900000000     0.287850000000     0.078700000000     0          
T        Si     0.846850000000     0.313500000000     0.227400000000     0          
T        Si     0.813400000000     0.348250000000     0.138400000000     0          
T        Si     0.885350000000     0.463100000000     0.138300000000     0          
T        Si     0.808150000000     0.461450000000     0.139000000000     0          
T        Si     0.937150000000     0.409250000000     0.199400000000     0          
T        Si     0.892650000000     0.341200000000     0.138300000000     0          
T        Si     0.941750000000     0.287850000000     0.197700000000     0          
T        Si     0.863200000000     0.289000000000     0.200800000000     0          
T        Si     0.857600000000     0.404000000000     0.200200000000     0          
T        Si     0.937300000000     0.462050000000     0.330800000000     0          
T        Si     0.815300000000     0.462000000000     0.261000000000     0          
T        Si     0.844350000000     0.462500000000     0.183600000000     0          
T        Si     0.811250000000     0.339850000000     0.261100000000     0          
T        Si     0.788750000000     0.461750000000     0.408400000000     0          
T        Si     0.962350000000     0.438600000000     0.427600000000     0          
O        O      0.948550000000     0.146950000000     0.739600000000     0          
O        O      0.960900000000     0.095950000000     0.725200000000     0          
O        O      0.500000000000     0.108700000000     0.743800000000     0          
O        O      0.940150000000     0.085950000000     0.747800000000     0          
O        O      0.960150000000     0.154950000000     0.682800000000     0          
O        O      0.938650000000     0.160150000000     0.660200000000     0          
O        O      0.500000000000     0.141850000000     0.664500000000     0          
O        O      0.950850000000     0.101200000000     0.669600000000     0          
O        O      0.876700000000     0.143300000000     0.663300000000     0          
O        O      0.813900000000     0.159900000000     0.661300000000     0          
O        O      0.840450000000     0.152650000000     0.682900000000     0          
O        O      0.830400000000     0.100050000000     0.669100000000     0          
O        O      0.937100000000     0.042800000000     0.660300000000     0          
O        O      0.893000000000     0.000000000000     0.652200000000     0          
O        O      0.895600000000     0.060400000000     0.643000000000     0          
O        O      0.873350000000     0.051500000000     0.665100000000     0          
O        O      0.938800000000     0.207650000000     0.747500000000     0          
O        O      0.898850000000     0.250000000000     0.758300000000     0          
O        O      0.900550000000     0.187400000000     0.765500000000     0          
O        O      0.874150000000     0.202950000000     0.744400000000     0          
O        O      0.877050000000     0.099100000000     0.746200000000     0          
O        O      0.911450000000     0.122800000000     0.764600000000     0          
O        O      0.898900000000     0.058350000000     0.763300000000     0          
O        O      0.812800000000     0.090600000000     0.747100000000     0          
O        O      0.837050000000     0.149500000000     0.741500000000     0          
O        O      0.841850000000     0.099700000000     0.726000000000     0          
O        O      0.750000000000     0.051450000000     0.653300000000     0          
O        O      0.805800000000     0.059550000000     0.640800000000     0          
O        O      0.785800000000     0.000000000000     0.646800000000     0          
O        O      0.808600000000     0.040500000000     0.663600000000     0          
O        O      0.804850000000     0.250000000000     0.636100000000     0          
O        O      0.789900000000     0.207850000000     0.618700000000     0          
O        O      0.789400000000     0.188450000000     0.641600000000     0          
O        O      0.846100000000     0.201550000000     0.630800000000     0          
O        O      0.796800000000     0.095700000000     0.621400000000     0          
O        O      0.793150000000     0.123250000000     0.643000000000     0          
O        O      0.851200000000     0.103350000000     0.634600000000     0          
O        O      0.750000000000     0.190550000000     0.601000000000     0          
O        O      0.813100000000     0.204700000000     0.596400000000     0          
O        O      0.797450000000     0.149900000000     0.608000000000     0          
O        O      0.750000000000     0.155750000000     0.656200000000     0          
O        O      0.812100000000     0.000000000000     0.771800000000     0          
O        O      0.793850000000     0.037650000000     0.790000000000     0          
O        O      0.851050000000     0.048350000000     0.779000000000     0          
O        O      0.794750000000     0.062000000000     0.767700000000     0          
O        O      0.836200000000     0.051000000000     0.684800000000     0          
O        O      0.944650000000     0.000000000000     0.698000000000     0          
O        O      0.959650000000     0.047800000000     0.682700000000     0          
O        O      0.945800000000     0.061650000000     0.705700000000     0          
O        O      0.898350000000     0.041800000000     0.690900000000     0          
O        O      0.944350000000     0.190750000000     0.702000000000     0          
O        O      0.900550000000     0.149800000000     0.692300000000     0          
O        O      0.952250000000     0.126350000000     0.704200000000     0          
O        O      0.949100000000     0.250000000000     0.711700000000     0          
O        O      0.899650000000     0.210700000000     0.717900000000     0          
O        O      0.960450000000     0.197350000000     0.725200000000     0          
O        O      0.750000000000     0.105400000000     0.604900000000     0          
O        O      0.811450000000     0.092100000000     0.598200000000     0          
O        O      0.750000000000     0.198950000000     0.755300000000     0          
O        O      0.808800000000     0.207650000000     0.745000000000     0          
O        O      0.805100000000     0.190200000000     0.768000000000     0          
O        O      0.786950000000     0.250000000000     0.761400000000     0          
O        O      0.901100000000     0.100850000000     0.715900000000     0          
O        O      0.750000000000     0.088150000000     0.753300000000     0          
O        O      0.790550000000     0.127000000000     0.765400000000     0          
O        O      0.899050000000     0.189150000000     0.523100000000     0          
O        O      0.874950000000     0.147250000000     0.539300000000     0          
O        O      0.907900000000     0.124500000000     0.520400000000     0          
O        O      0.939100000000     0.157300000000     0.537700000000     0          
O        O      0.874850000000     0.104300000000     0.602100000000     0          
O        O      0.845900000000     0.124850000000     0.582000000000     0          
O        O      0.857100000000     0.060950000000     0.585400000000     0          
O        O      0.892600000000     0.188100000000     0.646800000000     0          
O        O      0.907950000000     0.124800000000     0.643500000000     0          
O        O      0.861550000000     0.188450000000     0.581400000000     0          
O        O      0.875100000000     0.203000000000     0.604200000000     0          
O        O      0.855900000000     0.250000000000     0.589100000000     0          
O        O      0.856250000000     0.190850000000     0.701500000000     0          
O        O      0.839000000000     0.195450000000     0.724400000000     0          
O        O      0.850100000000     0.250000000000     0.711800000000     0          
O        O      0.750000000000     0.146950000000     0.534900000000     0          
O        O      0.786100000000     0.188550000000     0.522300000000     0          
O        O      0.811400000000     0.160250000000     0.541700000000     0          
O        O      0.800300000000     0.124550000000     0.522100000000     0          
O        O      0.897650000000     0.059700000000     0.520700000000     0          
O        O      0.874150000000     0.052300000000     0.542900000000     0          
O        O      0.892900000000     0.000000000000     0.530300000000     0          
O        O      0.937700000000     0.042000000000     0.538500000000     0          
O        O      0.900950000000     0.151650000000     0.785600000000     0          
O        O      0.852050000000     0.145050000000     0.770000000000     0          
O        O      0.893250000000     0.000000000000     0.773800000000     0          
O        O      0.912600000000     0.052050000000     0.786600000000     0          
O        O      0.844050000000     0.190900000000     0.824700000000     0          
O        O      0.859250000000     0.195500000000     0.847900000000     0          
O        O      0.851300000000     0.250000000000     0.834900000000     0          
O        O      0.903050000000     0.211600000000     0.831100000000     0          
O        O      0.905500000000     0.060250000000     0.886100000000     0          
O        O      0.848900000000     0.051450000000     0.897700000000     0          
O        O      0.885450000000     0.000000000000     0.891500000000     0          
O        O      0.906200000000     0.040350000000     0.908700000000     0          
O        O      0.858750000000     0.061500000000     0.828700000000     0          
O        O      0.854200000000     0.000000000000     0.821000000000     0          
O        O      0.875950000000     0.046500000000     0.806200000000     0          
O        O      0.812900000000     0.045350000000     0.812700000000     0          
O        O      0.854800000000     0.061100000000     0.707300000000     0          
O        O      0.849600000000     0.126050000000     0.704400000000     0          
O        O      0.794600000000     0.099600000000     0.500100000000     0          
O        O      0.852750000000     0.099750000000     0.511200000000     0          
O        O      0.804800000000     0.060050000000     0.518600000000     0          
O        O      0.837750000000     0.050500000000     0.562800000000     0          
O        O      0.834500000000     0.102250000000     0.548400000000     0          
O        O      0.808900000000     0.044800000000     0.541700000000     0          
O        O      0.872250000000     0.156700000000     0.807000000000     0          
O        O      0.848400000000     0.125750000000     0.826200000000     0          
O        O      0.807450000000     0.153450000000     0.810600000000     0          
O        O      0.854350000000     0.000000000000     0.576800000000     0          
O        O      0.900000000000     0.041500000000     0.568800000000     0          
O        O      0.841300000000     0.097600000000     0.847500000000     0          
O        O      0.901100000000     0.104000000000     0.838000000000     0          
O        O      0.913400000000     0.187650000000     0.889800000000     0          
O        O      0.854950000000     0.164250000000     0.895200000000     0          
O        O      0.907400000000     0.144900000000     0.907800000000     0          
O        O      0.900050000000     0.125400000000     0.885000000000     0          
O        O      0.789150000000     0.000000000000     0.525800000000     0          
O        O      0.750000000000     0.050150000000     0.531200000000     0          
O        O      0.852500000000     0.000000000000     0.698600000000     0          
O        O      0.806050000000     0.250000000000     0.518300000000     0          
O        O      0.843400000000     0.199750000000     0.511400000000     0          
O        O      0.787450000000     0.212550000000     0.500000000000     0          
O        O      0.957700000000     0.156000000000     0.560600000000     0          
O        O      0.903850000000     0.143500000000     0.573400000000     0          
O        O      0.945950000000     0.189450000000     0.580700000000     0          
O        O      0.962450000000     0.126300000000     0.581900000000     0          
O        O      0.875150000000     0.201350000000     0.871000000000     0          
O        O      0.939450000000     0.214250000000     0.870100000000     0          
O        O      0.900500000000     0.250000000000     0.883900000000     0          
O        O      0.849350000000     0.156150000000     0.561100000000     0          
O        O      0.936000000000     0.092500000000     0.868800000000     0          
O        O      0.870950000000     0.088000000000     0.868500000000     0          
O        O      0.846800000000     0.188950000000     0.945100000000     0          
O        O      0.841600000000     0.204350000000     0.968100000000     0          
O        O      0.859550000000     0.250000000000     0.952200000000     0          
O        O      0.900600000000     0.201250000000     0.957800000000     0          
O        O      0.896450000000     0.062200000000     0.005300000000     0          
O        O      0.894800000000     0.126200000000     0.010600000000     0          
O        O      0.940400000000     0.101100000000     0.602500000000     0          
O        O      0.947050000000     0.062750000000     0.583400000000     0          
O        O      0.500000000000     0.085750000000     0.594500000000     0          
O        O      0.855000000000     0.058900000000     0.950600000000     0          
O        O      0.899650000000     0.098000000000     0.960900000000     0          
O        O      0.839000000000     0.095100000000     0.969500000000     0          
O        O      0.850600000000     0.124050000000     0.948400000000     0          
O        O      0.750000000000     0.209850000000     0.994100000000     0          
O        O      0.814450000000     0.209200000000     0.989600000000     0          
O        O      0.809600000000     0.148850000000     0.932200000000     0          
O        O      0.873950000000     0.151700000000     0.928200000000     0          
O        O      0.906400000000     0.093300000000     0.622600000000     0          
O        O      0.875550000000     0.035900000000     0.929600000000     0          
O        O      0.813050000000     0.054400000000     0.932200000000     0          
O        O      0.835250000000     0.000000000000     0.942800000000     0          
O        O      0.908650000000     0.207550000000     0.624600000000     0          
O        O      0.882100000000     0.250000000000     0.640000000000     0          
O        O      0.883300000000     0.250000000000     0.516300000000     0          
O        O      0.905000000000     0.191200000000     0.009300000000     0          
O        O      0.877650000000     0.194250000000     0.987700000000     0          
O        O      0.939000000000     0.213300000000     0.990500000000     0          
O        O      0.891250000000     0.250000000000     0.999600000000     0          
O        O      0.831800000000     0.150600000000     0.981400000000     0          
O        O      0.940350000000     0.046300000000     0.928900000000     0          
O        O      0.500000000000     0.049550000000     0.938600000000     0          
O        O      0.947050000000     0.059950000000     0.952100000000     0          
O        O      0.960100000000     0.000000000000     0.944200000000     0          
O        O      0.957050000000     0.094100000000     0.972200000000     0          
O        O      0.953150000000     0.125150000000     0.951200000000     0          
O        O      0.940800000000     0.205150000000     0.603800000000     0          
O        O      0.909850000000     0.152100000000     0.612200000000     0          
O        O      0.750000000000     0.205200000000     0.872000000000     0          
O        O      0.797900000000     0.188350000000     0.887100000000     0          
O        O      0.812300000000     0.202450000000     0.864500000000     0          
O        O      0.793250000000     0.250000000000     0.879300000000     0          
O        O      0.500000000000     0.060850000000     0.542400000000     0          
O        O      0.961500000000     0.045650000000     0.560800000000     0          
O        O      0.950150000000     0.100100000000     0.548400000000     0          
O        O      0.909300000000     0.090700000000     0.500000000000     0          
O        O      0.500000000000     0.140050000000     0.543400000000     0          
O        O      0.500000000000     0.116400000000     0.988300000000     0          
O        O      0.950800000000     0.154600000000     0.980700000000     0          
O        O      0.939550000000     0.250000000000     0.950700000000     0          
O        O      0.954350000000     0.188150000000     0.945000000000     0          
O        O      0.959450000000     0.208850000000     0.967700000000     0          
O        O      0.898800000000     0.093700000000     0.922300000000     0          
O        O      0.941150000000     0.049500000000     0.808000000000     0          
O        O      0.953850000000     0.000000000000     0.823000000000     0          
O        O      0.947850000000     0.061600000000     0.831200000000     0          
O        O      0.500000000000     0.044600000000     0.818200000000     0          
O        O      0.500000000000     0.195100000000     0.985700000000     0          
O        O      0.801700000000     0.162000000000     0.908900000000     0          
O        O      0.806350000000     0.123600000000     0.889700000000     0          
O        O      0.811800000000     0.000000000000     0.891900000000     0          
O        O      0.790700000000     0.060650000000     0.887200000000     0          
O        O      0.794300000000     0.039050000000     0.909900000000     0          
O        O      0.750000000000     0.147950000000     0.922600000000     0          
O        O      0.793350000000     0.101050000000     0.917000000000     0          
O        O      0.500000000000     0.147300000000     0.936700000000     0          
O        O      0.938650000000     0.142600000000     0.928800000000     0          
O        O      0.955500000000     0.250000000000     0.833400000000     0          
O        O      0.961600000000     0.189500000000     0.824200000000     0          
O        O      0.948550000000     0.197250000000     0.847400000000     0          
O        O      0.960800000000     0.108150000000     0.847300000000     0          
O        O      0.951200000000     0.124500000000     0.824600000000     0          
O        O      0.750000000000     0.107150000000     0.879200000000     0          
O        O      0.806550000000     0.096550000000     0.867900000000     0          
O        O      0.750000000000     0.058600000000     0.925900000000     0          
O        O      0.805900000000     0.150900000000     0.786900000000     0          
O        O      0.846400000000     0.146850000000     0.863200000000     0          
O        O      0.500000000000     0.104800000000     0.866200000000     0          
O        O      0.956800000000     0.153350000000     0.864700000000     0          
O        O      0.500000000000     0.202350000000     0.862100000000     0          
O        O      0.906500000000     0.102700000000     0.801500000000     0          
O        O      0.750000000000     0.053100000000     0.806700000000     0          
O        O      0.794250000000     0.097150000000     0.799700000000     0          
O        O      0.750000000000     0.145800000000     0.799400000000     0          
O        O      0.937450000000     0.159150000000     0.805100000000     0          
O        O      0.500000000000     0.059900000000     0.664600000000     0          
O        O      0.500000000000     0.186000000000     0.743700000000     0          
O        O      0.500000000000     0.149750000000     0.811600000000     0          
O        O      0.960050000000     0.250000000000     0.587900000000     0          
O        O      0.500000000000     0.200700000000     0.593600000000     0          
O        O      0.945400000000     0.000000000000     0.576800000000     0          
T        Si     0.962150000000     0.109300000000     0.739000000000     0          
T        Si     0.962250000000     0.139600000000     0.669400000000     0          
T        Si     0.840300000000     0.138850000000     0.669200000000     0          
T        Si     0.899800000000     0.038650000000     0.655200000000     0          
T        Si     0.903050000000     0.211900000000     0.754000000000     0          
T        Si     0.906700000000     0.091500000000     0.755600000000     0          
T        Si     0.842250000000     0.110000000000     0.740200000000     0          
T        Si     0.787400000000     0.038200000000     0.651200000000     0          
T        Si     0.807500000000     0.211850000000     0.631700000000     0          
T        Si     0.811950000000     0.095650000000     0.634900000000     0          
T        Si     0.787650000000     0.188300000000     0.605900000000     0          
T        Si     0.787000000000     0.156850000000     0.650600000000     0          
T        Si     0.812900000000     0.037300000000     0.777100000000     0          
T        Si     0.837400000000     0.060850000000     0.670600000000     0          
T        Si     0.937150000000     0.038000000000     0.694300000000     0          
T        Si     0.939300000000     0.155450000000     0.695300000000     0          
T        Si     0.938400000000     0.212000000000     0.714200000000     0          
T        Si     0.788700000000     0.110850000000     0.608200000000     0          
T        Si     0.787650000000     0.211550000000     0.757300000000     0          
T        Si     0.939950000000     0.096200000000     0.712800000000     0          
T        Si     0.787400000000     0.091950000000     0.758400000000     0          
T        Si     0.905050000000     0.154450000000     0.530000000000     0          
T        Si     0.847500000000     0.095500000000     0.591900000000     0          
T        Si     0.903800000000     0.154150000000     0.653300000000     0          
T        Si     0.851400000000     0.211450000000     0.592800000000     0          
T        Si     0.861150000000     0.211900000000     0.713800000000     0          
T        Si     0.787150000000     0.155000000000     0.530300000000     0          
T        Si     0.900550000000     0.038600000000     0.533100000000     0          
T        Si     0.891350000000     0.151900000000     0.771400000000     0          
T        Si     0.889050000000     0.039450000000     0.775700000000     0          
T        Si     0.864250000000     0.212050000000     0.834700000000     0          
T        Si     0.886400000000     0.038050000000     0.896000000000     0          
T        Si     0.850500000000     0.038450000000     0.817100000000     0          
T        Si     0.861850000000     0.096850000000     0.713400000000     0          
T        Si     0.813200000000     0.096100000000     0.513000000000     0          
T        Si     0.839000000000     0.062450000000     0.548900000000     0          
T        Si     0.843250000000     0.156700000000     0.817100000000     0          
T        Si     0.862250000000     0.038250000000     0.573500000000     0          
T        Si     0.862400000000     0.097300000000     0.835100000000     0          
T        Si     0.893900000000     0.155150000000     0.894600000000     0          
T        Si     0.788100000000     0.038800000000     0.529400000000     0          
T        Si     0.860450000000     0.038300000000     0.695500000000     0          
T        Si     0.805700000000     0.212600000000     0.513000000000     0          
T        Si     0.942500000000     0.153850000000     0.574200000000     0          
T        Si     0.907050000000     0.213050000000     0.878700000000     0          
T        Si     0.865150000000     0.153350000000     0.574500000000     0          
T        Si     0.903050000000     0.091900000000     0.877100000000     0          
T        Si     0.862200000000     0.211300000000     0.955800000000     0          
T        Si     0.900650000000     0.099350000000     0.000000000000     0          
T        Si     0.962300000000     0.094100000000     0.590600000000     0          
T        Si     0.861050000000     0.094050000000     0.957200000000     0          
T        Si     0.786600000000     0.213400000000     0.000000000000     0          
T        Si     0.845450000000     0.153150000000     0.938500000000     0          
T        Si     0.890250000000     0.095250000000     0.636000000000     0          
T        Si     0.844500000000     0.037500000000     0.938800000000     0          
T        Si     0.882500000000     0.211800000000     0.635600000000     0          
T        Si     0.881600000000     0.211250000000     0.512700000000     0          
T        Si     0.902950000000     0.212350000000     0.996900000000     0          
T        Si     0.841550000000     0.189450000000     0.981700000000     0          
T        Si     0.838450000000     0.111300000000     0.982800000000     0          
T        Si     0.961850000000     0.038950000000     0.940900000000     0          
T        Si     0.939200000000     0.094350000000     0.959100000000     0          
T        Si     0.908600000000     0.192000000000     0.611100000000     0          
T        Si     0.788300000000     0.211500000000     0.875700000000     0          
T        Si     0.962350000000     0.062000000000     0.547400000000     0          
T        Si     0.861700000000     0.154950000000     0.695300000000     0          
T        Si     0.891950000000     0.093500000000     0.513200000000     0          
T        Si     0.961700000000     0.138400000000     0.547600000000     0          
T        Si     0.961650000000     0.117100000000     0.984100000000     0          
T        Si     0.938550000000     0.211950000000     0.955300000000     0          
T        Si     0.905300000000     0.054200000000     0.922400000000     0          
T        Si     0.842800000000     0.141350000000     0.547700000000     0          
T        Si     0.960750000000     0.038650000000     0.820100000000     0          
T        Si     0.962050000000     0.193000000000     0.981100000000     0          
T        Si     0.815150000000     0.159650000000     0.895100000000     0          
T        Si     0.811300000000     0.037900000000     0.896600000000     0          
T        Si     0.788650000000     0.139900000000     0.920100000000     0          
T        Si     0.961450000000     0.150800000000     0.940400000000     0          
T        Si     0.904800000000     0.133250000000     0.921800000000     0          
T        Si     0.907750000000     0.112650000000     0.609800000000     0          
T        Si     0.942300000000     0.212200000000     0.834000000000     0          
T        Si     0.940150000000     0.099350000000     0.835200000000     0          
T        Si     0.788400000000     0.096850000000     0.881000000000     0          
T        Si     0.787850000000     0.063100000000     0.921300000000     0          
T        Si     0.813500000000     0.153150000000     0.772600000000     0          
T        Si     0.848250000000     0.186600000000     0.861600000000     0          
T        Si     0.963100000000     0.114650000000     0.861700000000     0          
T        Si     0.961450000000     0.191850000000     0.861000000000     0          
T        Si     0.909250000000     0.062850000000     0.800600000000     0          
T        Si     0.841200000000     0.107350000000     0.861700000000     0          
T        Si     0.787850000000     0.058250000000     0.802300000000     0          
T        Si     0.789000000000     0.136800000000     0.799200000000     0          
T        Si     0.904000000000     0.142400000000     0.799800000000     0          
T        Si     0.962050000000     0.062700000000     0.669200000000     0          
T        Si     0.962000000000     0.184700000000     0.739000000000     0          
T        Si     0.962500000000     0.155650000000     0.816400000000     0          
T        Si     0.839850000000     0.188750000000     0.738900000000     0          
T        Si     0.961750000000     0.211250000000     0.591600000000     0          
T        Si     0.938600000000     0.037650000000     0.572400000000     0          
O        O      0.853050000000     0.051450000000     0.260400000000     0          
O        O      0.904050000000     0.039100000000     0.274800000000     0          
O        O      0.914050000000     0.059850000000     0.252200000000     0          
O        O      0.845050000000     0.039850000000     0.317200000000     0          
O        O      0.839850000000     0.061350000000     0.339800000000     0          
O        O      0.898800000000     0.049150000000     0.330400000000     0          
O        O      0.856700000000     0.123300000000     0.336700000000     0          
O        O      0.840100000000     0.186100000000     0.338700000000     0          
O        O      0.847350000000     0.159550000000     0.317100000000     0          
O        O      0.899950000000     0.169600000000     0.330900000000     0          
O        O      0.957200000000     0.062900000000     0.339700000000     0          
O        O      0.939600000000     0.104400000000     0.357000000000     0          
O        O      0.948500000000     0.126650000000     0.334900000000     0          
O        O      0.792350000000     0.061200000000     0.252500000000     0          
O        O      0.812600000000     0.099450000000     0.234500000000     0          
O        O      0.797050000000     0.125850000000     0.255600000000     0          
O        O      0.900900000000     0.122950000000     0.253800000000     0          
O        O      0.877200000000     0.088550000000     0.235400000000     0          
O        O      0.941650000000     0.101100000000     0.236700000000     0          
O        O      0.909400000000     0.187200000000     0.252900000000     0          
O        O      0.850500000000     0.162950000000     0.258500000000     0          
O        O      0.900300000000     0.158150000000     0.274000000000     0          
O        O      0.940450000000     0.194200000000     0.359200000000     0          
O        O      0.959500000000     0.191400000000     0.336400000000     0          
O        O      0.792150000000     0.210100000000     0.381300000000     0          
O        O      0.811550000000     0.210600000000     0.358400000000     0          
O        O      0.798450000000     0.153900000000     0.369200000000     0          
O        O      0.904300000000     0.203200000000     0.378600000000     0          
O        O      0.876750000000     0.206850000000     0.357000000000     0          
O        O      0.896650000000     0.148800000000     0.365400000000     0          
O        O      0.795300000000     0.186900000000     0.403600000000     0          
O        O      0.850100000000     0.202550000000     0.392000000000     0          
O        O      0.962350000000     0.206150000000     0.210000000000     0          
O        O      0.951650000000     0.148950000000     0.221000000000     0          
O        O      0.938000000000     0.205250000000     0.232300000000     0          
O        O      0.949000000000     0.163800000000     0.315200000000     0          
O        O      0.952200000000     0.040350000000     0.317300000000     0          
O        O      0.938350000000     0.054200000000     0.294300000000     0          
O        O      0.958200000000     0.101650000000     0.309100000000     0          
O        O      0.809250000000     0.055650000000     0.298000000000     0          
O        O      0.850200000000     0.099450000000     0.307700000000     0          
O        O      0.873650000000     0.047750000000     0.295800000000     0          
O        O      0.789300000000     0.100350000000     0.282100000000     0          
O        O      0.802650000000     0.039550000000     0.274800000000     0          
O        O      0.907900000000     0.188550000000     0.401800000000     0          
O        O      0.792350000000     0.191200000000     0.255000000000     0          
O        O      0.809800000000     0.194900000000     0.232000000000     0          
O        O      0.899150000000     0.098900000000     0.284100000000     0          
O        O      0.873000000000     0.209450000000     0.234600000000     0          
O        O      0.810850000000     0.100950000000     0.476900000000     0          
O        O      0.852750000000     0.125050000000     0.460700000000     0          
O        O      0.875500000000     0.092100000000     0.479600000000     0          
O        O      0.842700000000     0.060900000000     0.462300000000     0          
O        O      0.895700000000     0.125150000000     0.397900000000     0          
O        O      0.875150000000     0.154100000000     0.418000000000     0          
O        O      0.939050000000     0.142900000000     0.414600000000     0          
O        O      0.811900000000     0.107400000000     0.353200000000     0          
O        O      0.875200000000     0.092050000000     0.356500000000     0          
O        O      0.811550000000     0.138450000000     0.418600000000     0          
O        O      0.797000000000     0.124900000000     0.395800000000     0          
O        O      0.809150000000     0.143750000000     0.298500000000     0          
O        O      0.804550000000     0.161000000000     0.275600000000     0          
O        O      0.811450000000     0.213900000000     0.477700000000     0          
O        O      0.839750000000     0.188600000000     0.458300000000     0          
O        O      0.875450000000     0.199700000000     0.477900000000     0          
O        O      0.940300000000     0.102350000000     0.479300000000     0          
O        O      0.947700000000     0.125850000000     0.457100000000     0          
O        O      0.958000000000     0.062300000000     0.461500000000     0          
O        O      0.848350000000     0.099050000000     0.214400000000     0          
O        O      0.854950000000     0.147950000000     0.230000000000     0          
O        O      0.947950000000     0.087400000000     0.213400000000     0          
O        O      0.809100000000     0.155950000000     0.175300000000     0          
O        O      0.804500000000     0.140750000000     0.152100000000     0          
O        O      0.788400000000     0.096950000000     0.168900000000     0          
O        O      0.939750000000     0.094500000000     0.113900000000     0          
O        O      0.948550000000     0.151100000000     0.102300000000     0          
O        O      0.959650000000     0.093800000000     0.091300000000     0          
O        O      0.938500000000     0.141250000000     0.171300000000     0          
O        O      0.953500000000     0.124050000000     0.193800000000     0          
O        O      0.954650000000     0.187100000000     0.187300000000     0          
O        O      0.938900000000     0.145200000000     0.292700000000     0          
O        O      0.873950000000     0.150400000000     0.295600000000     0          
O        O      0.900400000000     0.205400000000     0.499900000000     0          
O        O      0.900250000000     0.147250000000     0.488800000000     0          
O        O      0.939950000000     0.195200000000     0.481400000000     0          
O        O      0.949500000000     0.162250000000     0.437200000000     0          
O        O      0.897750000000     0.165500000000     0.451600000000     0          
O        O      0.955200000000     0.191100000000     0.458300000000     0          
O        O      0.843300000000     0.127750000000     0.193000000000     0          
O        O      0.874250000000     0.151600000000     0.173800000000     0          
O        O      0.846550000000     0.192550000000     0.189400000000     0          
O        O      0.958500000000     0.100000000000     0.431200000000     0          
O        O      0.902400000000     0.158700000000     0.152500000000     0          
O        O      0.896000000000     0.098900000000     0.162000000000     0          
O        O      0.812350000000     0.086600000000     0.110200000000     0          
O        O      0.835750000000     0.145050000000     0.104800000000     0          
O        O      0.855100000000     0.092600000000     0.092200000000     0          
O        O      0.874600000000     0.099950000000     0.115000000000     0          
O        O      0.800250000000     0.156600000000     0.488600000000     0          
O        O      0.844000000000     0.042300000000     0.439400000000     0          
O        O      0.856500000000     0.096150000000     0.426600000000     0          
O        O      0.810550000000     0.054050000000     0.419300000000     0          
O        O      0.873700000000     0.037550000000     0.418100000000     0          
O        O      0.798650000000     0.124850000000     0.129000000000     0          
O        O      0.785750000000     0.060550000000     0.129900000000     0          
O        O      0.843850000000     0.150650000000     0.438900000000     0          
O        O      0.907500000000     0.064000000000     0.131200000000     0          
O        O      0.912000000000     0.129050000000     0.131500000000     0          
O        O      0.811050000000     0.153200000000     0.054900000000     0          
O        O      0.795650000000     0.158400000000     0.031900000000     0          
O        O      0.798750000000     0.099400000000     0.042200000000     0          
O        O      0.937800000000     0.103550000000     0.994700000000     0          
O        O      0.873800000000     0.105200000000     0.989400000000     0          
O        O      0.898900000000     0.059600000000     0.397500000000     0          
O        O      0.937250000000     0.052950000000     0.416600000000     0          
O        O      0.941100000000     0.145000000000     0.049400000000     0          
O        O      0.902000000000     0.100350000000     0.039100000000     0          
O        O      0.904900000000     0.161000000000     0.030500000000     0          
O        O      0.875950000000     0.149400000000     0.051600000000     0          
O        O      0.790800000000     0.185550000000     0.010400000000     0          
O        O      0.851150000000     0.190400000000     0.067800000000     0          
O        O      0.848300000000     0.126050000000     0.071800000000     0          
O        O      0.906700000000     0.093600000000     0.377400000000     0          
O        O      0.964100000000     0.124450000000     0.070400000000     0          
O        O      0.945600000000     0.186950000000     0.067800000000     0          
O        O      0.792450000000     0.091350000000     0.375400000000     0          
O        O      0.808800000000     0.095000000000     0.990700000000     0          
O        O      0.805750000000     0.122350000000     0.012300000000     0          
O        O      0.786700000000     0.061000000000     0.009500000000     0          
O        O      0.849400000000     0.168200000000     0.018600000000     0          
O        O      0.953700000000     0.059650000000     0.071100000000     0          
O        O      0.940050000000     0.052950000000     0.047900000000     0          
O        O      0.905900000000     0.042950000000     0.027800000000     0          
O        O      0.874850000000     0.046850000000     0.048800000000     0          
O        O      0.794850000000     0.059200000000     0.396200000000     0          
O        O      0.847900000000     0.090150000000     0.387800000000     0          
O        O      0.811650000000     0.202100000000     0.112900000000     0          
O        O      0.797550000000     0.187700000000     0.135500000000     0          
O        O      0.954350000000     0.038500000000     0.439200000000     0          
O        O      0.899900000000     0.049850000000     0.451600000000     0          
O        O      0.845400000000     0.049200000000     0.019300000000     0          
O        O      0.811850000000     0.045650000000     0.055000000000     0          
O        O      0.791150000000     0.040550000000     0.032300000000     0          
O        O      0.906300000000     0.101200000000     0.077700000000     0          
O        O      0.950500000000     0.058850000000     0.192000000000     0          
O        O      0.938400000000     0.052150000000     0.168800000000     0          
O        O      0.838000000000     0.198300000000     0.091100000000     0          
O        O      0.876400000000     0.193650000000     0.110300000000     0          
O        O      0.939350000000     0.209300000000     0.112800000000     0          
O        O      0.960950000000     0.205700000000     0.090100000000     0          
O        O      0.898950000000     0.206650000000     0.083000000000     0          
O        O      0.857400000000     0.061350000000     0.071200000000     0          
O        O      0.810500000000     0.038400000000     0.175800000000     0          
O        O      0.802750000000     0.051450000000     0.152600000000     0          
O        O      0.891850000000     0.039200000000     0.152700000000     0          
O        O      0.875500000000     0.048800000000     0.175400000000     0          
O        O      0.903450000000     0.193450000000     0.132100000000     0          
O        O      0.849100000000     0.194100000000     0.213100000000     0          
O        O      0.853150000000     0.153600000000     0.136800000000     0          
O        O      0.846650000000     0.043200000000     0.135300000000     0          
O        O      0.897300000000     0.093500000000     0.198500000000     0          
O        O      0.902850000000     0.205750000000     0.200300000000     0          
O        O      0.840850000000     0.062550000000     0.194900000000     0          
T        Si     0.890700000000     0.037850000000     0.261000000000     0          
T        Si     0.860400000000     0.037750000000     0.330600000000     0          
T        Si     0.861150000000     0.159700000000     0.330800000000     0          
T        Si     0.961350000000     0.100200000000     0.344800000000     0          
T        Si     0.788100000000     0.096950000000     0.246000000000     0          
T        Si     0.908500000000     0.093300000000     0.244400000000     0          
T        Si     0.890000000000     0.157750000000     0.259800000000     0          
T        Si     0.961800000000     0.212600000000     0.348800000000     0          
T        Si     0.788150000000     0.192500000000     0.368300000000     0          
T        Si     0.904350000000     0.188050000000     0.365100000000     0          
T        Si     0.811700000000     0.212350000000     0.394100000000     0          
T        Si     0.843150000000     0.213000000000     0.349400000000     0          
T        Si     0.962700000000     0.187100000000     0.222900000000     0          
T        Si     0.939150000000     0.162600000000     0.329400000000     0          
T        Si     0.962000000000     0.062850000000     0.305700000000     0          
T        Si     0.844550000000     0.060700000000     0.304700000000     0          
T        Si     0.788000000000     0.061600000000     0.285800000000     0          
T        Si     0.889150000000     0.211300000000     0.391800000000     0          
T        Si     0.788450000000     0.212350000000     0.242700000000     0          
T        Si     0.903800000000     0.060050000000     0.287200000000     0          
T        Si     0.908050000000     0.212600000000     0.241600000000     0          
T        Si     0.845550000000     0.094950000000     0.470000000000     0          
T        Si     0.904500000000     0.152500000000     0.408100000000     0          
T        Si     0.845850000000     0.096200000000     0.346700000000     0          
T        Si     0.788550000000     0.148600000000     0.407200000000     0          
T        Si     0.788100000000     0.138850000000     0.286200000000     0          
T        Si     0.845000000000     0.212850000000     0.469700000000     0          
T        Si     0.961400000000     0.099450000000     0.466900000000     0          
T        Si     0.848100000000     0.108650000000     0.228600000000     0          
T        Si     0.960550000000     0.110950000000     0.224300000000     0          
T        Si     0.787950000000     0.135750000000     0.165300000000     0          
T        Si     0.961950000000     0.113600000000     0.104000000000     0          
T        Si     0.961550000000     0.149500000000     0.182900000000     0          
T        Si     0.903150000000     0.138150000000     0.286600000000     0          
T        Si     0.903900000000     0.186800000000     0.487000000000     0          
T        Si     0.937550000000     0.161000000000     0.451100000000     0          
T        Si     0.843300000000     0.156750000000     0.182900000000     0          
T        Si     0.961750000000     0.137750000000     0.426500000000     0          
T        Si     0.902700000000     0.137600000000     0.164900000000     0          
T        Si     0.844850000000     0.106100000000     0.105400000000     0          
T        Si     0.961200000000     0.211900000000     0.470600000000     0          
T        Si     0.961700000000     0.139550000000     0.304500000000     0          
T        Si     0.787400000000     0.194300000000     0.487000000000     0          
T        Si     0.846150000000     0.057500000000     0.425800000000     0          
T        Si     0.786950000000     0.092950000000     0.121300000000     0          
T        Si     0.846650000000     0.134850000000     0.425500000000     0          
T        Si     0.908100000000     0.096950000000     0.122900000000     0          
T        Si     0.788700000000     0.137800000000     0.044200000000     0          
T        Si     0.905900000000     0.037700000000     0.409400000000     0          
T        Si     0.905950000000     0.138950000000     0.042800000000     0          
T        Si     0.846850000000     0.154550000000     0.061500000000     0          
T        Si     0.904750000000     0.109750000000     0.364000000000     0          
T        Si     0.962500000000     0.155500000000     0.061200000000     0          
T        Si     0.788200000000     0.117500000000     0.364400000000     0          
T        Si     0.788750000000     0.118400000000     0.487300000000     0          
T        Si     0.787650000000     0.097050000000     0.003100000000     0          
T        Si     0.810550000000     0.158450000000     0.018300000000     0          
T        Si     0.888700000000     0.161550000000     0.017200000000     0          
T        Si     0.961050000000     0.038150000000     0.059100000000     0          
T        Si     0.905650000000     0.060800000000     0.040900000000     0          
T        Si     0.808000000000     0.091400000000     0.388900000000     0          
T        Si     0.788500000000     0.211700000000     0.124300000000     0          
T        Si     0.938000000000     0.037650000000     0.452600000000     0          
T        Si     0.845050000000     0.138300000000     0.304700000000     0          
T        Si     0.906500000000     0.108050000000     0.486800000000     0          
T        Si     0.861600000000     0.038300000000     0.452400000000     0          
T        Si     0.882900000000     0.038350000000     0.015900000000     0          
T        Si     0.788050000000     0.061450000000     0.044700000000     0          
T        Si     0.945800000000     0.094700000000     0.077600000000     0          
T        Si     0.858650000000     0.157200000000     0.452300000000     0          
T        Si     0.961350000000     0.039250000000     0.179900000000     0          
T        Si     0.807000000000     0.037950000000     0.018900000000     0          
T        Si     0.840350000000     0.184850000000     0.104900000000     0          
T        Si     0.962100000000     0.188700000000     0.103400000000     0          
T        Si     0.860100000000     0.211350000000     0.079900000000     0          
T        Si     0.849200000000     0.038550000000     0.059600000000     0          
T        Si     0.866750000000     0.095200000000     0.078200000000     0          
T        Si     0.887350000000     0.092250000000     0.390200000000     0          
T        Si     0.787800000000     0.057700000000     0.166000000000     0          
T        Si     0.900650000000     0.059850000000     0.164800000000     0          
T        Si     0.903150000000     0.211600000000     0.119000000000     0          
T        Si     0.936900000000     0.212150000000     0.078700000000     0          
T        Si     0.846850000000     0.186500000000     0.227400000000     0          
T        Si     0.813400000000     0.151750000000     0.138400000000     0          
T        Si     0.885350000000     0.036900000000     0.138300000000     0          
T        Si     0.808150000000     0.038550000000     0.139000000000     0          
T        Si     0.937150000000     0.090750000000     0.199400000000     0          
T        Si     0.892650000000     0.158800000000     0.138300000000     0          
T        Si     0.941750000000     0.212150000000     0.197700000000     0          
T        Si     0.863200000000     0.211000000000     0.200800000000     0          
T        Si     0.857600000000     0.096000000000     0.200200000000     0          
T        Si     0.937300000000     0.037950000000     0.330800000000     0          
T        Si     0.815300000000     0.038000000000     0.261000000000     0          
T        Si     0.844350000000     0.037500000000     0.183600000000     0          
T        Si     0.811250000000     0.160150000000     0.261100000000     0          
T        Si     0.788750000000     0.038250000000     0.408400000000     0          
T        Si     0.962350000000     0.061400000000     0.427600000000     0          
O        O      0.551450000000     0.146950000000     0.739600000000     0          
O        O      0.539100000000     0.095950000000     0.725200000000     0          
O        O      0.559850000000     0.085950000000     0.747800000000     0          
O        O      0.539850000000     0.154950000000     0.682800000000     0          
O        O      0.561350000000     0.160150000000     0.660200000000     0          
O        O      0.549150000000     0.101200000000     0.669600000000     0          
O        O      0.623300000000     0.143300000000     0.663300000000     0          
O        O      0.686100000000     0.159900000000     0.661300000000     0          
O        O      0.659550000000     0.152650000000     0.682900000000     0          
O        O      0.669600000000     0.100050000000     0.669100000000     0          
O        O      0.562900000000     0.042800000000     0.660300000000     0          
O        O      0.604400000000     0.060400000000     0.643000000000     0          
O        O      0.626650000000     0.051500000000     0.665100000000     0          
O        O      0.561200000000     0.207650000000     0.747500000000     0          
O        O      0.599450000000     0.187400000000     0.765500000000     0          
O        O      0.625850000000     0.202950000000     0.744400000000     0          
O        O      0.622950000000     0.099100000000     0.746200000000     0          
O        O      0.588550000000     0.122800000000     0.764600000000     0          
O        O      0.601100000000     0.058350000000     0.763300000000     0          
O        O      0.687200000000     0.090600000000     0.747100000000     0          
O        O      0.662950000000     0.149500000000     0.741500000000     0          
O        O      0.658150000000     0.099700000000     0.726000000000     0          
O        O      0.694200000000     0.059550000000     0.640800000000     0          
O        O      0.691400000000     0.040500000000     0.663600000000     0          
O        O      0.710100000000     0.207850000000     0.618700000000     0          
O        O      0.710600000000     0.188450000000     0.641600000000     0          
O        O      0.653900000000     0.201550000000     0.630800000000     0          
O        O      0.703200000000     0.095700000000     0.621400000000     0          
O        O      0.706850000000     0.123250000000     0.643000000000     0          
O        O      0.648800000000     0.103350000000     0.634600000000     0          
O        O      0.686900000000     0.204700000000     0.596400000000     0          
O        O      0.702550000000     0.149900000000     0.608000000000     0          
O        O      0.706150000000     0.037650000000     0.790000000000     0          
O        O      0.648950000000     0.048350000000     0.779000000000     0          
O        O      0.705250000000     0.062000000000     0.767700000000     0          
O        O      0.663800000000     0.051000000000     0.684800000000     0          
O        O      0.540350000000     0.047800000000     0.682700000000     0          
O        O      0.554200000000     0.061650000000     0.705700000000     0          
O        O      0.601650000000     0.041800000000     0.690900000000     0          
O        O      0.555650000000     0.190750000000     0.702000000000     0          
O        O      0.599450000000     0.149800000000     0.692300000000     0          
O        O      0.547750000000     0.126350000000     0.704200000000     0          
O        O      0.600350000000     0.210700000000     0.717900000000     0          
O        O      0.539550000000     0.197350000000     0.725200000000     0          
O        O      0.688550000000     0.092100000000     0.598200000000     0          
O        O      0.691200000000     0.207650000000     0.745000000000     0          
O        O      0.694900000000     0.190200000000     0.768000000000     0          
O        O      0.598900000000     0.100850000000     0.715900000000     0          
O        O      0.709450000000     0.127000000000     0.765400000000     0          
O        O      0.600950000000     0.189150000000     0.523100000000     0          
O        O      0.625050000000     0.147250000000     0.539300000000     0          
O        O      0.592100000000     0.124500000000     0.520400000000     0          
O        O      0.560900000000     0.157300000000     0.537700000000     0          
O        O      0.625150000000     0.104300000000     0.602100000000     0          
O        O      0.654100000000     0.124850000000     0.582000000000     0          
O        O      0.642900000000     0.060950000000     0.585400000000     0          
O        O      0.607400000000     0.188100000000     0.646800000000     0          
O        O      0.592050000000     0.124800000000     0.643500000000     0          
O        O      0.638450000000     0.188450000000     0.581400000000     0          
O        O      0.624900000000     0.203000000000     0.604200000000     0          
O        O      0.643750000000     0.190850000000     0.701500000000     0          
O        O      0.661000000000     0.195450000000     0.724400000000     0          
O        O      0.713900000000     0.188550000000     0.522300000000     0          
O        O      0.688600000000     0.160250000000     0.541700000000     0          
O        O      0.699700000000     0.124550000000     0.522100000000     0          
O        O      0.602350000000     0.059700000000     0.520700000000     0          
O        O      0.625850000000     0.052300000000     0.542900000000     0          
O        O      0.562300000000     0.042000000000     0.538500000000     0          
O        O      0.599050000000     0.151650000000     0.785600000000     0          
O        O      0.647950000000     0.145050000000     0.770000000000     0          
O        O      0.587400000000     0.052050000000     0.786600000000     0          
O        O      0.655950000000     0.190900000000     0.824700000000     0          
O        O      0.640750000000     0.195500000000     0.847900000000     0          
O        O      0.596950000000     0.211600000000     0.831100000000     0          
O        O      0.594500000000     0.060250000000     0.886100000000     0          
O        O      0.651100000000     0.051450000000     0.897700000000     0          
O        O      0.593800000000     0.040350000000     0.908700000000     0          
O        O      0.641250000000     0.061500000000     0.828700000000     0          
O        O      0.624050000000     0.046500000000     0.806200000000     0          
O        O      0.687100000000     0.045350000000     0.812700000000     0          
O        O      0.645200000000     0.061100000000     0.707300000000     0          
O        O      0.650400000000     0.126050000000     0.704400000000     0          
O        O      0.705400000000     0.099600000000     0.500100000000     0          
O        O      0.647250000000     0.099750000000     0.511200000000     0          
O        O      0.695200000000     0.060050000000     0.518600000000     0          
O        O      0.662250000000     0.050500000000     0.562800000000     0          
O        O      0.665500000000     0.102250000000     0.548400000000     0          
O        O      0.691100000000     0.044800000000     0.541700000000     0          
O        O      0.627750000000     0.156700000000     0.807000000000     0          
O        O      0.651600000000     0.125750000000     0.826200000000     0          
O        O      0.692550000000     0.153450000000     0.810600000000     0          
O        O      0.600000000000     0.041500000000     0.568800000000     0          
O        O      0.658700000000     0.097600000000     0.847500000000     0          
O        O      0.598900000000     0.104000000000     0.838000000000     0          
O        O      0.586600000000     0.187650000000     0.889800000000     0          
O        O      0.645050000000     0.164250000000     0.895200000000     0          
O        O      0.592600000000     0.144900000000     0.907800000000     0          
O        O      0.599950000000     0.125400000000     0.885000000000     0          
O        O      0.656600000000     0.199750000000     0.511400000000     0          
O        O      0.542300000000     0.156000000000     0.560600000000     0          
O        O      0.596150000000     0.143500000000     0.573400000000     0          
O        O      0.554050000000     0.189450000000     0.580700000000     0          
O        O      0.537550000000     0.126300000000     0.581900000000     0          
O        O      0.624850000000     0.201350000000     0.871000000000     0          
O        O      0.560550000000     0.214250000000     0.870100000000     0          
O        O      0.650650000000     0.156150000000     0.561100000000     0          
O        O      0.564000000000     0.092500000000     0.868800000000     0          
O        O      0.629050000000     0.088000000000     0.868500000000     0          
O        O      0.653200000000     0.188950000000     0.945100000000     0          
O        O      0.658400000000     0.204350000000     0.968100000000     0          
O        O      0.599400000000     0.201250000000     0.957800000000     0          
O        O      0.603550000000     0.062200000000     0.005300000000     0          
O        O      0.605200000000     0.126200000000     0.010600000000     0          
O        O      0.559600000000     0.101100000000     0.602500000000     0          
O        O      0.552950000000     0.062750000000     0.583400000000     0          
O        O      0.645000000000     0.058900000000     0.950600000000     0          
O        O      0.600350000000     0.098000000000     0.960900000000     0          
O        O      0.661000000000     0.095100000000     0.969500000000     0          
O        O      0.649400000000     0.124050000000     0.948400000000     0          
O        O      0.685550000000     0.209200000000     0.989600000000     0          
O        O      0.690400000000     0.148850000000     0.932200000000     0          
O        O      0.626050000000     0.151700000000     0.928200000000     0          
O        O      0.593600000000     0.093300000000     0.622600000000     0          
O        O      0.624450000000     0.035900000000     0.929600000000     0          
O        O      0.686950000000     0.054400000000     0.932200000000     0          
O        O      0.591350000000     0.207550000000     0.624600000000     0          
O        O      0.595000000000     0.191200000000     0.009300000000     0          
O        O      0.622350000000     0.194250000000     0.987700000000     0          
O        O      0.561000000000     0.213300000000     0.990500000000     0          
O        O      0.668200000000     0.150600000000     0.981400000000     0          
O        O      0.559650000000     0.046300000000     0.928900000000     0          
O        O      0.552950000000     0.059950000000     0.952100000000     0          
O        O      0.542950000000     0.094100000000     0.972200000000     0          
O        O      0.546850000000     0.125150000000     0.951200000000     0          
O        O      0.559200000000     0.205150000000     0.603800000000     0          
O        O      0.590150000000     0.152100000000     0.612200000000     0          
O        O      0.702100000000     0.188350000000     0.887100000000     0          
O        O      0.687700000000     0.202450000000     0.864500000000     0          
O        O      0.538500000000     0.045650000000     0.560800000000     0          
O        O      0.549850000000     0.100100000000     0.548400000000     0          
O        O      0.549200000000     0.154600000000     0.980700000000     0          
O        O      0.545650000000     0.188150000000     0.945000000000     0          
O        O      0.540550000000     0.208850000000     0.967700000000     0          
O        O      0.601200000000     0.093700000000     0.922300000000     0          
O        O      0.558850000000     0.049500000000     0.808000000000     0          
O        O      0.552150000000     0.061600000000     0.831200000000     0          
O        O      0.698300000000     0.162000000000     0.908900000000     0          
O        O      0.693650000000     0.123600000000     0.889700000000     0          
O        O      0.709300000000     0.060650000000     0.887200000000     0          
O        O      0.705700000000     0.039050000000     0.909900000000     0          
O        O      0.706650000000     0.101050000000     0.917000000000     0          
O        O      0.561350000000     0.142600000000     0.928800000000     0          
O        O      0.538400000000     0.189500000000     0.824200000000     0          
O        O      0.551450000000     0.197250000000     0.847400000000     0          
O        O      0.539200000000     0.108150000000     0.847300000000     0          
O        O      0.548800000000     0.124500000000     0.824600000000     0          
O        O      0.693450000000     0.096550000000     0.867900000000     0          
O        O      0.694100000000     0.150900000000     0.786900000000     0          
O        O      0.653600000000     0.146850000000     0.863200000000     0          
O        O      0.543200000000     0.153350000000     0.864700000000     0          
O        O      0.593500000000     0.102700000000     0.801500000000     0          
O        O      0.705750000000     0.097150000000     0.799700000000     0          
O        O      0.562550000000     0.159150000000     0.805100000000     0          
T        Si     0.537850000000     0.109300000000     0.739000000000     0          
T        Si     0.537750000000     0.139600000000     0.669400000000     0          
T        Si     0.659700000000     0.138850000000     0.669200000000     0          
T        Si     0.600200000000     0.038650000000     0.655200000000     0          
T        Si     0.596950000000     0.211900000000     0.754000000000     0          
T        Si     0.593300000000     0.091500000000     0.755600000000     0          
T        Si     0.657750000000     0.110000000000     0.740200000000     0          
T        Si     0.712600000000     0.038200000000     0.651200000000     0          
T        Si     0.692500000000     0.211850000000     0.631700000000     0          
T        Si     0.688050000000     0.095650000000     0.634900000000     0          
T        Si     0.712350000000     0.188300000000     0.605900000000     0          
T        Si     0.713000000000     0.156850000000     0.650600000000     0          
T        Si     0.687100000000     0.037300000000     0.777100000000     0          
T        Si     0.662600000000     0.060850000000     0.670600000000     0          
T        Si     0.562850000000     0.038000000000     0.694300000000     0          
T        Si     0.560700000000     0.155450000000     0.695300000000     0          
T        Si     0.561600000000     0.212000000000     0.714200000000     0          
T        Si     0.711300000000     0.110850000000     0.608200000000     0          
T        Si     0.712350000000     0.211550000000     0.757300000000     0          
T        Si     0.560050000000     0.096200000000     0.712800000000     0          
T        Si     0.712600000000     0.091950000000     0.758400000000     0          
T        Si     0.594950000000     0.154450000000     0.530000000000     0          
T        Si     0.652500000000     0.095500000000     0.591900000000     0          
T        Si     0.596200000000     0.154150000000     0.653300000000     0          
T        Si     0.648600000000     0.211450000000     0.592800000000     0          
T        Si     0.638850000000     0.211900000000     0.713800000000     0          
T        Si     0.712850000000     0.155000000000     0.530300000000     0          
T        Si     0.599450000000     0.038600000000     0.533100000000     0          
T        Si     0.608650000000     0.151900000000     0.771400000000     0          
T        Si     0.610950000000     0.039450000000     0.775700000000     0          
T        Si     0.635750000000     0.212050000000     0.834700000000     0          
T        Si     0.613600000000     0.038050000000     0.896000000000     0          
T        Si     0.649500000000     0.038450000000     0.817100000000     0          
T        Si     0.638150000000     0.096850000000     0.713400000000     0          
T        Si     0.686800000000     0.096100000000     0.513000000000     0          
T        Si     0.661000000000     0.062450000000     0.548900000000     0          
T        Si     0.656750000000     0.156700000000     0.817100000000     0          
T        Si     0.637750000000     0.038250000000     0.573500000000     0          
T        Si     0.637600000000     0.097300000000     0.835100000000     0          
T        Si     0.606100000000     0.155150000000     0.894600000000     0          
T        Si     0.711900000000     0.038800000000     0.529400000000     0          
T        Si     0.639550000000     0.038300000000     0.695500000000     0          
T        Si     0.694300000000     0.212600000000     0.513000000000     0          
T        Si     0.557500000000     0.153850000000     0.574200000000     0          
T        Si     0.592950000000     0.213050000000     0.878700000000     0          
T        Si     0.634850000000     0.153350000000     0.574500000000     0          
T        Si     0.596950000000     0.091900000000     0.877100000000     0          
T        Si     0.637800000000     0.211300000000     0.955800000000     0          
T        Si     0.537700000000     0.094100000000     0.590600000000     0          
T        Si     0.638950000000     0.094050000000     0.957200000000     0          
T        Si     0.654550000000     0.153150000000     0.938500000000     0          
T        Si     0.609750000000     0.095250000000     0.636000000000     0          
T        Si     0.655500000000     0.037500000000     0.938800000000     0          
T        Si     0.617500000000     0.211800000000     0.635600000000     0          
T        Si     0.618400000000     0.211250000000     0.512700000000     0          
T        Si     0.597050000000     0.212350000000     0.996900000000     0          
T        Si     0.658450000000     0.189450000000     0.981700000000     0          
T        Si     0.661550000000     0.111300000000     0.982800000000     0          
T        Si     0.538150000000     0.038950000000     0.940900000000     0          
T        Si     0.560800000000     0.094350000000     0.959100000000     0          
T        Si     0.591400000000     0.192000000000     0.611100000000     0          
T        Si     0.711700000000     0.211500000000     0.875700000000     0          
T        Si     0.537650000000     0.062000000000     0.547400000000     0          
T        Si     0.638300000000     0.154950000000     0.695300000000     0          
T        Si     0.608050000000     0.093500000000     0.513200000000     0          
T        Si     0.538300000000     0.138400000000     0.547600000000     0          
T        Si     0.538350000000     0.117100000000     0.984100000000     0          
T        Si     0.561450000000     0.211950000000     0.955300000000     0          
T        Si     0.594700000000     0.054200000000     0.922400000000     0          
T        Si     0.657200000000     0.141350000000     0.547700000000     0          
T        Si     0.539250000000     0.038650000000     0.820100000000     0          
T        Si     0.537950000000     0.193000000000     0.981100000000     0          
T        Si     0.684850000000     0.159650000000     0.895100000000     0          
T        Si     0.688700000000     0.037900000000     0.896600000000     0          
T        Si     0.711350000000     0.139900000000     0.920100000000     0          
T        Si     0.538550000000     0.150800000000     0.940400000000     0          
T        Si     0.595200000000     0.133250000000     0.921800000000     0          
T        Si     0.592250000000     0.112650000000     0.609800000000     0          
T        Si     0.557700000000     0.212200000000     0.834000000000     0          
T        Si     0.559850000000     0.099350000000     0.835200000000     0          
T        Si     0.711600000000     0.096850000000     0.881000000000     0          
T        Si     0.712150000000     0.063100000000     0.921300000000     0          
T        Si     0.686500000000     0.153150000000     0.772600000000     0          
T        Si     0.651750000000     0.186600000000     0.861600000000     0          
T        Si     0.536900000000     0.114650000000     0.861700000000     0          
T        Si     0.538550000000     0.191850000000     0.861000000000     0          
T        Si     0.590750000000     0.062850000000     0.800600000000     0          
T        Si     0.658800000000     0.107350000000     0.861700000000     0          
T        Si     0.712150000000     0.058250000000     0.802300000000     0          
T        Si     0.711000000000     0.136800000000     0.799200000000     0          
T        Si     0.596000000000     0.142400000000     0.799800000000     0          
T        Si     0.537950000000     0.062700000000     0.669200000000     0          
T        Si     0.538000000000     0.184700000000     0.739000000000     0          
T        Si     0.537500000000     0.155650000000     0.816400000000     0          
T        Si     0.660150000000     0.188750000000     0.738900000000     0          
T        Si     0.538250000000     0.211250000000     0.591600000000     0          
T        Si     0.561400000000     0.037650000000     0.572400000000     0          
O        O      0.646950000000     0.448550000000     0.260400000000     0          
O        O      0.595950000000     0.460900000000     0.274800000000     0          
O        O      0.585950000000     0.440150000000     0.252200000000     0          
O        O      0.654950000000     0.460150000000     0.317200000000     0          
O        O      0.660150000000     0.438650000000     0.339800000000     0          
O        O      0.601200000000     0.450850000000     0.330400000000     0          
O        O      0.643300000000     0.376700000000     0.336700000000     0          
O        O      0.659900000000     0.313900000000     0.338700000000     0          
O        O      0.652650000000     0.340450000000     0.317100000000     0          
O        O      0.600050000000     0.330400000000     0.330900000000     0          
O        O      0.542800000000     0.437100000000     0.339700000000     0          
O        O      0.560400000000     0.395600000000     0.357000000000     0          
O        O      0.551500000000     0.373350000000     0.334900000000     0          
O        O      0.707650000000     0.438800000000     0.252500000000     0          
O        O      0.687400000000     0.400550000000     0.234500000000     0          
O        O      0.702950000000     0.374150000000     0.255600000000     0          
O        O      0.599100000000     0.377050000000     0.253800000000     0          
O        O      0.622800000000     0.411450000000     0.235400000000     0          
O        O      0.558350000000     0.398900000000     0.236700000000     0          
O        O      0.590600000000     0.312800000000     0.252900000000     0          
O        O      0.649500000000     0.337050000000     0.258500000000     0          
O        O      0.599700000000     0.341850000000     0.274000000000     0          
O        O      0.559550000000     0.305800000000     0.359200000000     0          
O        O      0.540500000000     0.308600000000     0.336400000000     0          
O        O      0.707850000000     0.289900000000     0.381300000000     0          
O        O      0.688450000000     0.289400000000     0.358400000000     0          
O        O      0.701550000000     0.346100000000     0.369200000000     0          
O        O      0.595700000000     0.296800000000     0.378600000000     0          
O        O      0.623250000000     0.293150000000     0.357000000000     0          
O        O      0.603350000000     0.351200000000     0.365400000000     0          
O        O      0.704700000000     0.313100000000     0.403600000000     0          
O        O      0.649900000000     0.297450000000     0.392000000000     0          
O        O      0.537650000000     0.293850000000     0.210000000000     0          
O        O      0.548350000000     0.351050000000     0.221000000000     0          
O        O      0.562000000000     0.294750000000     0.232300000000     0          
O        O      0.551000000000     0.336200000000     0.315200000000     0          
O        O      0.547800000000     0.459650000000     0.317300000000     0          
O        O      0.561650000000     0.445800000000     0.294300000000     0          
O        O      0.541800000000     0.398350000000     0.309100000000     0          
O        O      0.690750000000     0.444350000000     0.298000000000     0          
O        O      0.649800000000     0.400550000000     0.307700000000     0          
O        O      0.626350000000     0.452250000000     0.295800000000     0          
O        O      0.710700000000     0.399650000000     0.282100000000     0          
O        O      0.697350000000     0.460450000000     0.274800000000     0          
O        O      0.592100000000     0.311450000000     0.401800000000     0          
O        O      0.707650000000     0.308800000000     0.255000000000     0          
O        O      0.690200000000     0.305100000000     0.232000000000     0          
O        O      0.600850000000     0.401100000000     0.284100000000     0          
O        O      0.627000000000     0.290550000000     0.234600000000     0          
O        O      0.689150000000     0.399050000000     0.476900000000     0          
O        O      0.647250000000     0.374950000000     0.460700000000     0          
O        O      0.624500000000     0.407900000000     0.479600000000     0          
O        O      0.657300000000     0.439100000000     0.462300000000     0          
O        O      0.604300000000     0.374850000000     0.397900000000     0          
O        O      0.624850000000     0.345900000000     0.418000000000     0          
O        O      0.560950000000     0.357100000000     0.414600000000     0          
O        O      0.688100000000     0.392600000000     0.353200000000     0          
O        O      0.624800000000     0.407950000000     0.356500000000     0          
O        O      0.688450000000     0.361550000000     0.418600000000     0          
O        O      0.703000000000     0.375100000000     0.395800000000     0          
O        O      0.690850000000     0.356250000000     0.298500000000     0          
O        O      0.695450000000     0.339000000000     0.275600000000     0          
O        O      0.688550000000     0.286100000000     0.477700000000     0          
O        O      0.660250000000     0.311400000000     0.458300000000     0          
O        O      0.624550000000     0.300300000000     0.477900000000     0          
O        O      0.559700000000     0.397650000000     0.479300000000     0          
O        O      0.552300000000     0.374150000000     0.457100000000     0          
O        O      0.542000000000     0.437700000000     0.461500000000     0          
O        O      0.651650000000     0.400950000000     0.214400000000     0          
O        O      0.645050000000     0.352050000000     0.230000000000     0          
O        O      0.552050000000     0.412600000000     0.213400000000     0          
O        O      0.690900000000     0.344050000000     0.175300000000     0          
O        O      0.695500000000     0.359250000000     0.152100000000     0          
O        O      0.711600000000     0.403050000000     0.168900000000     0          
O        O      0.560250000000     0.405500000000     0.113900000000     0          
O        O      0.551450000000     0.348900000000     0.102300000000     0          
O        O      0.540350000000     0.406200000000     0.091300000000     0          
O        O      0.561500000000     0.358750000000     0.171300000000     0          
O        O      0.546500000000     0.375950000000     0.193800000000     0          
O        O      0.545350000000     0.312900000000     0.187300000000     0          
O        O      0.561100000000     0.354800000000     0.292700000000     0          
O        O      0.626050000000     0.349600000000     0.295600000000     0          
O        O      0.599600000000     0.294600000000     0.499900000000     0          
O        O      0.599750000000     0.352750000000     0.488800000000     0          
O        O      0.560050000000     0.304800000000     0.481400000000     0          
O        O      0.550500000000     0.337750000000     0.437200000000     0          
O        O      0.602250000000     0.334500000000     0.451600000000     0          
O        O      0.544800000000     0.308900000000     0.458300000000     0          
O        O      0.656700000000     0.372250000000     0.193000000000     0          
O        O      0.625750000000     0.348400000000     0.173800000000     0          
O        O      0.653450000000     0.307450000000     0.189400000000     0          
O        O      0.541500000000     0.400000000000     0.431200000000     0          
O        O      0.597600000000     0.341300000000     0.152500000000     0          
O        O      0.604000000000     0.401100000000     0.162000000000     0          
O        O      0.687650000000     0.413400000000     0.110200000000     0          
O        O      0.664250000000     0.354950000000     0.104800000000     0          
O        O      0.644900000000     0.407400000000     0.092200000000     0          
O        O      0.625400000000     0.400050000000     0.115000000000     0          
O        O      0.699750000000     0.343400000000     0.488600000000     0          
O        O      0.656000000000     0.457700000000     0.439400000000     0          
O        O      0.643500000000     0.403850000000     0.426600000000     0          
O        O      0.689450000000     0.445950000000     0.419300000000     0          
O        O      0.626300000000     0.462450000000     0.418100000000     0          
O        O      0.701350000000     0.375150000000     0.129000000000     0          
O        O      0.714250000000     0.439450000000     0.129900000000     0          
O        O      0.656150000000     0.349350000000     0.438900000000     0          
O        O      0.592500000000     0.436000000000     0.131200000000     0          
O        O      0.588000000000     0.370950000000     0.131500000000     0          
O        O      0.688950000000     0.346800000000     0.054900000000     0          
O        O      0.704350000000     0.341600000000     0.031900000000     0          
O        O      0.701250000000     0.400600000000     0.042200000000     0          
O        O      0.562200000000     0.396450000000     0.994700000000     0          
O        O      0.626200000000     0.394800000000     0.989400000000     0          
O        O      0.601100000000     0.440400000000     0.397500000000     0          
O        O      0.562750000000     0.447050000000     0.416600000000     0          
O        O      0.558900000000     0.355000000000     0.049400000000     0          
O        O      0.598000000000     0.399650000000     0.039100000000     0          
O        O      0.595100000000     0.339000000000     0.030500000000     0          
O        O      0.624050000000     0.350600000000     0.051600000000     0          
O        O      0.709200000000     0.314450000000     0.010400000000     0          
O        O      0.648850000000     0.309600000000     0.067800000000     0          
O        O      0.651700000000     0.373950000000     0.071800000000     0          
O        O      0.593300000000     0.406400000000     0.377400000000     0          
O        O      0.535900000000     0.375550000000     0.070400000000     0          
O        O      0.554400000000     0.313050000000     0.067800000000     0          
O        O      0.707550000000     0.408650000000     0.375400000000     0          
O        O      0.691200000000     0.405000000000     0.990700000000     0          
O        O      0.694250000000     0.377650000000     0.012300000000     0          
O        O      0.713300000000     0.439000000000     0.009500000000     0          
O        O      0.650600000000     0.331800000000     0.018600000000     0          
O        O      0.546300000000     0.440350000000     0.071100000000     0          
O        O      0.559950000000     0.447050000000     0.047900000000     0          
O        O      0.594100000000     0.457050000000     0.027800000000     0          
O        O      0.625150000000     0.453150000000     0.048800000000     0          
O        O      0.705150000000     0.440800000000     0.396200000000     0          
O        O      0.652100000000     0.409850000000     0.387800000000     0          
O        O      0.688350000000     0.297900000000     0.112900000000     0          
O        O      0.702450000000     0.312300000000     0.135500000000     0          
O        O      0.545650000000     0.461500000000     0.439200000000     0          
O        O      0.600100000000     0.450150000000     0.451600000000     0          
O        O      0.654600000000     0.450800000000     0.019300000000     0          
O        O      0.688150000000     0.454350000000     0.055000000000     0          
O        O      0.708850000000     0.459450000000     0.032300000000     0          
O        O      0.593700000000     0.398800000000     0.077700000000     0          
O        O      0.549500000000     0.441150000000     0.192000000000     0          
O        O      0.561600000000     0.447850000000     0.168800000000     0          
O        O      0.662000000000     0.301700000000     0.091100000000     0          
O        O      0.623600000000     0.306350000000     0.110300000000     0          
O        O      0.560650000000     0.290700000000     0.112800000000     0          
O        O      0.539050000000     0.294300000000     0.090100000000     0          
O        O      0.601050000000     0.293350000000     0.083000000000     0          
O        O      0.642600000000     0.438650000000     0.071200000000     0          
O        O      0.689500000000     0.461600000000     0.175800000000     0          
O        O      0.697250000000     0.448550000000     0.152600000000     0          
O        O      0.608150000000     0.460800000000     0.152700000000     0          
O        O      0.624500000000     0.451200000000     0.175400000000     0          
O        O      0.596550000000     0.306550000000     0.132100000000     0          
O        O      0.650900000000     0.305900000000     0.213100000000     0          
O        O      0.646850000000     0.346400000000     0.136800000000     0          
O        O      0.653350000000     0.456800000000     0.135300000000     0          
O        O      0.602700000000     0.406500000000     0.198500000000     0          
O        O      0.597150000000     0.294250000000     0.200300000000     0          
O        O      0.659150000000     0.437450000000     0.194900000000     0          
T        Si     0.609300000000     0.462150000000     0.261000000000     0          
T        Si     0.639600000000     0.462250000000     0.330600000000     0          
T        Si     0.638850000000     0.340300000000     0.330800000000     0          
T        Si     0.538650000000     0.399800000000     0.344800000000     0          
T        Si     0.711900000000     0.403050000000     0.246000000000     0          
T        Si     0.591500000000     0.406700000000     0.244400000000     0          
T        Si     0.610000000000     0.342250000000     0.259800000000     0          
T        Si     0.538200000000     0.287400000000     0.348800000000     0          
T        Si     0.711850000000     0.307500000000     0.368300000000     0          
T        Si     0.595650000000     0.311950000000     0.365100000000     0          
T        Si     0.688300000000     0.287650000000     0.394100000000     0          
T        Si     0.656850000000     0.287000000000     0.349400000000     0          
T        Si     0.537300000000     0.312900000000     0.222900000000     0          
T        Si     0.560850000000     0.337400000000     0.329400000000     0          
T        Si     0.538000000000     0.437150000000     0.305700000000     0          
T        Si     0.655450000000     0.439300000000     0.304700000000     0          
T        Si     0.712000000000     0.438400000000     0.285800000000     0          
T        Si     0.610850000000     0.288700000000     0.391800000000     0          
T        Si     0.711550000000     0.287650000000     0.242700000000     0          
T        Si     0.596200000000     0.439950000000     0.287200000000     0          
T        Si     0.591950000000     0.287400000000     0.241600000000     0          
T        Si     0.654450000000     0.405050000000     0.470000000000     0          
T        Si     0.595500000000     0.347500000000     0.408100000000     0          
T        Si     0.654150000000     0.403800000000     0.346700000000     0          
T        Si     0.711450000000     0.351400000000     0.407200000000     0          
T        Si     0.711900000000     0.361150000000     0.286200000000     0          
T        Si     0.655000000000     0.287150000000     0.469700000000     0          
T        Si     0.538600000000     0.400550000000     0.466900000000     0          
T        Si     0.651900000000     0.391350000000     0.228600000000     0          
T        Si     0.539450000000     0.389050000000     0.224300000000     0          
T        Si     0.712050000000     0.364250000000     0.165300000000     0          
T        Si     0.538050000000     0.386400000000     0.104000000000     0          
T        Si     0.538450000000     0.350500000000     0.182900000000     0          
T        Si     0.596850000000     0.361850000000     0.286600000000     0          
T        Si     0.596100000000     0.313200000000     0.487000000000     0          
T        Si     0.562450000000     0.339000000000     0.451100000000     0          
T        Si     0.656700000000     0.343250000000     0.182900000000     0          
T        Si     0.538250000000     0.362250000000     0.426500000000     0          
T        Si     0.597300000000     0.362400000000     0.164900000000     0          
T        Si     0.655150000000     0.393900000000     0.105400000000     0          
T        Si     0.538800000000     0.288100000000     0.470600000000     0          
T        Si     0.538300000000     0.360450000000     0.304500000000     0          
T        Si     0.712600000000     0.305700000000     0.487000000000     0          
T        Si     0.653850000000     0.442500000000     0.425800000000     0          
T        Si     0.713050000000     0.407050000000     0.121300000000     0          
T        Si     0.653350000000     0.365150000000     0.425500000000     0          
T        Si     0.591900000000     0.403050000000     0.122900000000     0          
T        Si     0.711300000000     0.362200000000     0.044200000000     0          
T        Si     0.594100000000     0.462300000000     0.409400000000     0          
T        Si     0.594050000000     0.361050000000     0.042800000000     0          
T        Si     0.653150000000     0.345450000000     0.061500000000     0          
T        Si     0.595250000000     0.390250000000     0.364000000000     0          
T        Si     0.537500000000     0.344500000000     0.061200000000     0          
T        Si     0.711800000000     0.382500000000     0.364400000000     0          
T        Si     0.711250000000     0.381600000000     0.487300000000     0          
T        Si     0.712350000000     0.402950000000     0.003100000000     0          
T        Si     0.689450000000     0.341550000000     0.018300000000     0          
T        Si     0.611300000000     0.338450000000     0.017200000000     0          
T        Si     0.538950000000     0.461850000000     0.059100000000     0          
T        Si     0.594350000000     0.439200000000     0.040900000000     0          
T        Si     0.692000000000     0.408600000000     0.388900000000     0          
T        Si     0.711500000000     0.288300000000     0.124300000000     0          
T        Si     0.562000000000     0.462350000000     0.452600000000     0          
T        Si     0.654950000000     0.361700000000     0.304700000000     0          
T        Si     0.593500000000     0.391950000000     0.486800000000     0          
T        Si     0.638400000000     0.461700000000     0.452400000000     0          
T        Si     0.617100000000     0.461650000000     0.015900000000     0          
T        Si     0.711950000000     0.438550000000     0.044700000000     0          
T        Si     0.554200000000     0.405300000000     0.077600000000     0          
T        Si     0.641350000000     0.342800000000     0.452300000000     0          
T        Si     0.538650000000     0.460750000000     0.179900000000     0          
T        Si     0.693000000000     0.462050000000     0.018900000000     0          
T        Si     0.659650000000     0.315150000000     0.104900000000     0          
T        Si     0.537900000000     0.311300000000     0.103400000000     0          
T        Si     0.639900000000     0.288650000000     0.079900000000     0          
T        Si     0.650800000000     0.461450000000     0.059600000000     0          
T        Si     0.633250000000     0.404800000000     0.078200000000     0          
T        Si     0.612650000000     0.407750000000     0.390200000000     0          
T        Si     0.712200000000     0.442300000000     0.166000000000     0          
T        Si     0.599350000000     0.440150000000     0.164800000000     0          
T        Si     0.596850000000     0.288400000000     0.119000000000     0          
T        Si     0.563100000000     0.287850000000     0.078700000000     0          
T        Si     0.653150000000     0.313500000000     0.227400000000     0          
T        Si     0.686600000000     0.348250000000     0.138400000000     0          
T        Si     0.614650000000     0.463100000000     0.138300000000     0          
T        Si     0.691850000000     0.461450000000     0.139000000000     0          
T        Si     0.562850000000     0.409250000000     0.199400000000     0          
T        Si     0.607350000000     0.341200000000     0.138300000000     0          
T        Si     0.558250000000     0.287850000000     0.197700000000     0          
T        Si     0.636800000000     0.289000000000     0.200800000000     0          
T        Si     0.642400000000     0.404000000000     0.200200000000     0          
T        Si     0.562700000000     0.462050000000     0.330800000000     0          
T        Si     0.684700000000     0.462000000000     0.261000000000     0          
T        Si     0.655650000000     0.462500000000     0.183600000000     0          
T        Si     0.688750000000     0.339850000000     0.261100000000     0          
T        Si     0.711250000000     0.461750000000     0.408400000000     0          
T        Si     0.537650000000     0.438600000000     0.427600000000     0          
O        O      0.948550000000     0.353050000000     0.739600000000     0          
O        O      0.960900000000     0.404050000000     0.725200000000     0          
O        O      0.940150000000     0.414050000000     0.747800000000     0          
O        O      0.960150000000     0.345050000000     0.682800000000     0          
O        O      0.938650000000     0.339850000000     0.660200000000     0          
O        O      0.950850000000     0.398800000000     0.669600000000     0          
O        O      0.876700000000     0.356700000000     0.663300000000     0          
O        O      0.813900000000     0.340100000000     0.661300000000     0          
O        O      0.840450000000     0.347350000000     0.682900000000     0          
O        O      0.830400000000     0.399950000000     0.669100000000     0          
O        O      0.937100000000     0.457200000000     0.660300000000     0          
O        O      0.895600000000     0.439600000000     0.643000000000     0          
O        O      0.873350000000     0.448500000000     0.665100000000     0          
O        O      0.938800000000     0.292350000000     0.747500000000     0          
O        O      0.900550000000     0.312600000000     0.765500000000     0          
O        O      0.874150000000     0.297050000000     0.744400000000     0          
O        O      0.877050000000     0.400900000000     0.746200000000     0          
O        O      0.911450000000     0.377200000000     0.764600000000     0          
O        O      0.898900000000     0.441650000000     0.763300000000     0          
O        O      0.812800000000     0.409400000000     0.747100000000     0          
O        O      0.837050000000     0.350500000000     0.741500000000     0          
O        O      0.841850000000     0.400300000000     0.726000000000     0          
O        O      0.805800000000     0.440450000000     0.640800000000     0          
O        O      0.808600000000     0.459500000000     0.663600000000     0          
O        O      0.789900000000     0.292150000000     0.618700000000     0          
O        O      0.789400000000     0.311550000000     0.641600000000     0          
O        O      0.846100000000     0.298450000000     0.630800000000     0          
O        O      0.796800000000     0.404300000000     0.621400000000     0          
O        O      0.793150000000     0.376750000000     0.643000000000     0          
O        O      0.851200000000     0.396650000000     0.634600000000     0          
O        O      0.813100000000     0.295300000000     0.596400000000     0          
O        O      0.797450000000     0.350100000000     0.608000000000     0          
O        O      0.793850000000     0.462350000000     0.790000000000     0          
O        O      0.851050000000     0.451650000000     0.779000000000     0          
O        O      0.794750000000     0.438000000000     0.767700000000     0          
O        O      0.836200000000     0.449000000000     0.684800000000     0          
O        O      0.959650000000     0.452200000000     0.682700000000     0          
O        O      0.945800000000     0.438350000000     0.705700000000     0          
O        O      0.898350000000     0.458200000000     0.690900000000     0          
O        O      0.944350000000     0.309250000000     0.702000000000     0          
O        O      0.900550000000     0.350200000000     0.692300000000     0          
O        O      0.952250000000     0.373650000000     0.704200000000     0          
O        O      0.899650000000     0.289300000000     0.717900000000     0          
O        O      0.960450000000     0.302650000000     0.725200000000     0          
O        O      0.811450000000     0.407900000000     0.598200000000     0          
O        O      0.808800000000     0.292350000000     0.745000000000     0          
O        O      0.805100000000     0.309800000000     0.768000000000     0          
O        O      0.901100000000     0.399150000000     0.715900000000     0          
O        O      0.790550000000     0.373000000000     0.765400000000     0          
O        O      0.899050000000     0.310850000000     0.523100000000     0          
O        O      0.874950000000     0.352750000000     0.539300000000     0          
O        O      0.907900000000     0.375500000000     0.520400000000     0          
O        O      0.939100000000     0.342700000000     0.537700000000     0          
O        O      0.874850000000     0.395700000000     0.602100000000     0          
O        O      0.845900000000     0.375150000000     0.582000000000     0          
O        O      0.857100000000     0.439050000000     0.585400000000     0          
O        O      0.892600000000     0.311900000000     0.646800000000     0          
O        O      0.907950000000     0.375200000000     0.643500000000     0          
O        O      0.861550000000     0.311550000000     0.581400000000     0          
O        O      0.875100000000     0.297000000000     0.604200000000     0          
O        O      0.856250000000     0.309150000000     0.701500000000     0          
O        O      0.839000000000     0.304550000000     0.724400000000     0          
O        O      0.786100000000     0.311450000000     0.522300000000     0          
O        O      0.811400000000     0.339750000000     0.541700000000     0          
O        O      0.800300000000     0.375450000000     0.522100000000     0          
O        O      0.897650000000     0.440300000000     0.520700000000     0          
O        O      0.874150000000     0.447700000000     0.542900000000     0          
O        O      0.937700000000     0.458000000000     0.538500000000     0          
O        O      0.900950000000     0.348350000000     0.785600000000     0          
O        O      0.852050000000     0.354950000000     0.770000000000     0          
O        O      0.912600000000     0.447950000000     0.786600000000     0          
O        O      0.844050000000     0.309100000000     0.824700000000     0          
O        O      0.859250000000     0.304500000000     0.847900000000     0          
O        O      0.903050000000     0.288400000000     0.831100000000     0          
O        O      0.905500000000     0.439750000000     0.886100000000     0          
O        O      0.848900000000     0.448550000000     0.897700000000     0          
O        O      0.906200000000     0.459650000000     0.908700000000     0          
O        O      0.858750000000     0.438500000000     0.828700000000     0          
O        O      0.875950000000     0.453500000000     0.806200000000     0          
O        O      0.812900000000     0.454650000000     0.812700000000     0          
O        O      0.854800000000     0.438900000000     0.707300000000     0          
O        O      0.849600000000     0.373950000000     0.704400000000     0          
O        O      0.794600000000     0.400400000000     0.500100000000     0          
O        O      0.852750000000     0.400250000000     0.511200000000     0          
O        O      0.804800000000     0.439950000000     0.518600000000     0          
O        O      0.837750000000     0.449500000000     0.562800000000     0          
O        O      0.834500000000     0.397750000000     0.548400000000     0          
O        O      0.808900000000     0.455200000000     0.541700000000     0          
O        O      0.872250000000     0.343300000000     0.807000000000     0          
O        O      0.848400000000     0.374250000000     0.826200000000     0          
O        O      0.807450000000     0.346550000000     0.810600000000     0          
O        O      0.900000000000     0.458500000000     0.568800000000     0          
O        O      0.841300000000     0.402400000000     0.847500000000     0          
O        O      0.901100000000     0.396000000000     0.838000000000     0          
O        O      0.913400000000     0.312350000000     0.889800000000     0          
O        O      0.854950000000     0.335750000000     0.895200000000     0          
O        O      0.907400000000     0.355100000000     0.907800000000     0          
O        O      0.900050000000     0.374600000000     0.885000000000     0          
O        O      0.843400000000     0.300250000000     0.511400000000     0          
O        O      0.957700000000     0.344000000000     0.560600000000     0          
O        O      0.903850000000     0.356500000000     0.573400000000     0          
O        O      0.945950000000     0.310550000000     0.580700000000     0          
O        O      0.962450000000     0.373700000000     0.581900000000     0          
O        O      0.875150000000     0.298650000000     0.871000000000     0          
O        O      0.939450000000     0.285750000000     0.870100000000     0          
O        O      0.849350000000     0.343850000000     0.561100000000     0          
O        O      0.936000000000     0.407500000000     0.868800000000     0          
O        O      0.870950000000     0.412000000000     0.868500000000     0          
O        O      0.846800000000     0.311050000000     0.945100000000     0          
O        O      0.841600000000     0.295650000000     0.968100000000     0          
O        O      0.900600000000     0.298750000000     0.957800000000     0          
O        O      0.896450000000     0.437800000000     0.005300000000     0          
O        O      0.894800000000     0.373800000000     0.010600000000     0          
O        O      0.940400000000     0.398900000000     0.602500000000     0          
O        O      0.947050000000     0.437250000000     0.583400000000     0          
O        O      0.855000000000     0.441100000000     0.950600000000     0          
O        O      0.899650000000     0.402000000000     0.960900000000     0          
O        O      0.839000000000     0.404900000000     0.969500000000     0          
O        O      0.850600000000     0.375950000000     0.948400000000     0          
O        O      0.814450000000     0.290800000000     0.989600000000     0          
O        O      0.809600000000     0.351150000000     0.932200000000     0          
O        O      0.873950000000     0.348300000000     0.928200000000     0          
O        O      0.906400000000     0.406700000000     0.622600000000     0          
O        O      0.875550000000     0.464100000000     0.929600000000     0          
O        O      0.813050000000     0.445600000000     0.932200000000     0          
O        O      0.908650000000     0.292450000000     0.624600000000     0          
O        O      0.905000000000     0.308800000000     0.009300000000     0          
O        O      0.877650000000     0.305750000000     0.987700000000     0          
O        O      0.939000000000     0.286700000000     0.990500000000     0          
O        O      0.831800000000     0.349400000000     0.981400000000     0          
O        O      0.940350000000     0.453700000000     0.928900000000     0          
O        O      0.947050000000     0.440050000000     0.952100000000     0          
O        O      0.957050000000     0.405900000000     0.972200000000     0          
O        O      0.953150000000     0.374850000000     0.951200000000     0          
O        O      0.940800000000     0.294850000000     0.603800000000     0          
O        O      0.909850000000     0.347900000000     0.612200000000     0          
O        O      0.797900000000     0.311650000000     0.887100000000     0          
O        O      0.812300000000     0.297550000000     0.864500000000     0          
O        O      0.961500000000     0.454350000000     0.560800000000     0          
O        O      0.950150000000     0.399900000000     0.548400000000     0          
O        O      0.950800000000     0.345400000000     0.980700000000     0          
O        O      0.954350000000     0.311850000000     0.945000000000     0          
O        O      0.959450000000     0.291150000000     0.967700000000     0          
O        O      0.898800000000     0.406300000000     0.922300000000     0          
O        O      0.941150000000     0.450500000000     0.808000000000     0          
O        O      0.947850000000     0.438400000000     0.831200000000     0          
O        O      0.801700000000     0.338000000000     0.908900000000     0          
O        O      0.806350000000     0.376400000000     0.889700000000     0          
O        O      0.790700000000     0.439350000000     0.887200000000     0          
O        O      0.794300000000     0.460950000000     0.909900000000     0          
O        O      0.793350000000     0.398950000000     0.917000000000     0          
O        O      0.938650000000     0.357400000000     0.928800000000     0          
O        O      0.961600000000     0.310500000000     0.824200000000     0          
O        O      0.948550000000     0.302750000000     0.847400000000     0          
O        O      0.960800000000     0.391850000000     0.847300000000     0          
O        O      0.951200000000     0.375500000000     0.824600000000     0          
O        O      0.806550000000     0.403450000000     0.867900000000     0          
O        O      0.805900000000     0.349100000000     0.786900000000     0          
O        O      0.846400000000     0.353150000000     0.863200000000     0          
O        O      0.956800000000     0.346650000000     0.864700000000     0          
O        O      0.906500000000     0.397300000000     0.801500000000     0          
O        O      0.794250000000     0.402850000000     0.799700000000     0          
O        O      0.937450000000     0.340850000000     0.805100000000     0          
T        Si     0.962150000000     0.390700000000     0.739000000000     0          
T        Si     0.962250000000     0.360400000000     0.669400000000     0          
T        Si     0.840300000000     0.361150000000     0.669200000000     0          
T        Si     0.899800000000     0.461350000000     0.655200000000     0          
T        Si     0.903050000000     0.288100000000     0.754000000000     0          
T        Si     0.906700000000     0.408500000000     0.755600000000     0          
T        Si     0.842250000000     0.390000000000     0.740200000000     0          
T        Si     0.787400000000     0.461800000000     0.651200000000     0          
T        Si     0.807500000000     0.288150000000     0.631700000000     0          
T        Si     0.811950000000     0.404350000000     0.634900000000     0          
T        Si     0.787650000000     0.311700000000     0.605900000000     0          
T        Si     0.787000000000     0.343150000000     0.650600000000     0          
T        Si     0.812900000000     0.462700000000     0.777100000000     0          
T        Si     0.837400000000     0.439150000000     0.670600000000     0          
T        Si     0.937150000000     0.462000000000     0.694300000000     0          
T        Si     0.939300000000     0.344550000000     0.695300000000     0          
T        Si     0.938400000000     0.288000000000     0.714200000000     0          
T        Si     0.788700000000     0.389150000000     0.608200000000     0          
T        Si     0.787650000000     0.288450000000     0.757300000000     0          
T        Si     0.939950000000     0.403800000000     0.712800000000     0          
T        Si     0.787400000000     0.408050000000     0.758400000000     0          
T        Si     0.905050000000     0.345550000000     0.530000000000     0          
T        Si     0.847500000000     0.404500000000     0.591900000000     0          
T        Si     0.903800000000     0.345850000000     0.653300000000     0          
T        Si     0.851400000000     0.288550000000     0.592800000000     0          
T        Si     0.861150000000     0.288100000000     0.713800000000     0          
T        Si     0.787150000000     0.345000000000     0.530300000000     0          
T        Si     0.900550000000     0.461400000000     0.533100000000     0          
T        Si     0.891350000000     0.348100000000     0.771400000000     0          
T        Si     0.889050000000     0.460550000000     0.775700000000     0          
T        Si     0.864250000000     0.287950000000     0.834700000000     0          
T        Si     0.886400000000     0.461950000000     0.896000000000     0          
T        Si     0.850500000000     0.461550000000     0.817100000000     0          
T        Si     0.861850000000     0.403150000000     0.713400000000     0          
T        Si     0.813200000000     0.403900000000     0.513000000000     0          
T        Si     0.839000000000     0.437550000000     0.548900000000     0          
T        Si     0.843250000000     0.343300000000     0.817100000000     0          
T        Si     0.862250000000     0.461750000000     0.573500000000     0          
T        Si     0.862400000000     0.402700000000     0.835100000000     0          
T        Si     0.893900000000     0.344850000000     0.894600000000     0          
T        Si     0.788100000000     0.461200000000     0.529400000000     0          
T        Si     0.860450000000     0.461700000000     0.695500000000     0          
T        Si     0.805700000000     0.287400000000     0.513000000000     0          
T        Si     0.942500000000     0.346150000000     0.574200000000     0          
T        Si     0.907050000000     0.286950000000     0.878700000000     0          
T        Si     0.865150000000     0.346650000000     0.574500000000     0          
T        Si     0.903050000000     0.408100000000     0.877100000000     0          
T        Si     0.862200000000     0.288700000000     0.955800000000     0          
T        Si     0.962300000000     0.405900000000     0.590600000000     0          
T        Si     0.861050000000     0.405950000000     0.957200000000     0          
T        Si     0.845450000000     0.346850000000     0.938500000000     0          
T        Si     0.890250000000     0.404750000000     0.636000000000     0          
T        Si     0.844500000000     0.462500000000     0.938800000000     0          
T        Si     0.882500000000     0.288200000000     0.635600000000     0          
T        Si     0.881600000000     0.288750000000     0.512700000000     0          
T        Si     0.902950000000     0.287650000000     0.996900000000     0          
T        Si     0.841550000000     0.310550000000     0.981700000000     0          
T        Si     0.838450000000     0.388700000000     0.982800000000     0          
T        Si     0.961850000000     0.461050000000     0.940900000000     0          
T        Si     0.939200000000     0.405650000000     0.959100000000     0          
T        Si     0.908600000000     0.308000000000     0.611100000000     0          
T        Si     0.788300000000     0.288500000000     0.875700000000     0          
T        Si     0.962350000000     0.438000000000     0.547400000000     0          
T        Si     0.861700000000     0.345050000000     0.695300000000     0          
T        Si     0.891950000000     0.406500000000     0.513200000000     0          
T        Si     0.961700000000     0.361600000000     0.547600000000     0          
T        Si     0.961650000000     0.382900000000     0.984100000000     0          
T        Si     0.938550000000     0.288050000000     0.955300000000     0          
T        Si     0.905300000000     0.445800000000     0.922400000000     0          
T        Si     0.842800000000     0.358650000000     0.547700000000     0          
T        Si     0.960750000000     0.461350000000     0.820100000000     0          
T        Si     0.962050000000     0.307000000000     0.981100000000     0          
T        Si     0.815150000000     0.340350000000     0.895100000000     0          
T        Si     0.811300000000     0.462100000000     0.896600000000     0          
T        Si     0.788650000000     0.360100000000     0.920100000000     0          
T        Si     0.961450000000     0.349200000000     0.940400000000     0          
T        Si     0.904800000000     0.366750000000     0.921800000000     0          
T        Si     0.907750000000     0.387350000000     0.609800000000     0          
T        Si     0.942300000000     0.287800000000     0.834000000000     0          
T        Si     0.940150000000     0.400650000000     0.835200000000     0          
T        Si     0.788400000000     0.403150000000     0.881000000000     0          
T        Si     0.787850000000     0.436900000000     0.921300000000     0          
T        Si     0.813500000000     0.346850000000     0.772600000000     0          
T        Si     0.848250000000     0.313400000000     0.861600000000     0          
T        Si     0.963100000000     0.385350000000     0.861700000000     0          
T        Si     0.961450000000     0.308150000000     0.861000000000     0          
T        Si     0.909250000000     0.437150000000     0.800600000000     0          
T        Si     0.841200000000     0.392650000000     0.861700000000     0          
T        Si     0.787850000000     0.441750000000     0.802300000000     0          
T        Si     0.789000000000     0.363200000000     0.799200000000     0          
T        Si     0.904000000000     0.357600000000     0.799800000000     0          
T        Si     0.962050000000     0.437300000000     0.669200000000     0          
T        Si     0.962000000000     0.315300000000     0.739000000000     0          
T        Si     0.962500000000     0.344350000000     0.816400000000     0          
T        Si     0.839850000000     0.311250000000     0.738900000000     0          
T        Si     0.961750000000     0.288750000000     0.591600000000     0          
T        Si     0.938600000000     0.462350000000     0.572400000000     0          
O        O      0.646950000000     0.551450000000     0.260400000000     0          
O        O      0.595950000000     0.539100000000     0.274800000000     0          
O        O      0.608700000000     0.500000000000     0.256200000000     0          
O        O      0.585950000000     0.559850000000     0.252200000000     0          
O        O      0.654950000000     0.539850000000     0.317200000000     0          
O        O      0.660150000000     0.561350000000     0.339800000000     0          
O        O      0.641850000000     0.500000000000     0.335500000000     0          
O        O      0.601200000000     0.549150000000     0.330400000000     0          
O        O      0.643300000000     0.623300000000     0.336700000000     0          
O        O      0.659900000000     0.686100000000     0.338700000000     0          
O        O      0.652650000000     0.659550000000     0.317100000000     0          
O        O      0.600050000000     0.669600000000     0.330900000000     0          
O        O      0.542800000000     0.562900000000     0.339700000000     0          
O        O      0.500000000000     0.607000000000     0.347800000000     0          
O        O      0.560400000000     0.604400000000     0.357000000000     0          
O        O      0.551500000000     0.626650000000     0.334900000000     0          
O        O      0.707650000000     0.561200000000     0.252500000000     0          
O        O      0.750000000000     0.601150000000     0.241700000000     0          
O        O      0.687400000000     0.599450000000     0.234500000000     0          
O        O      0.702950000000     0.625850000000     0.255600000000     0          
O        O      0.599100000000     0.622950000000     0.253800000000     0          
O        O      0.622800000000     0.588550000000     0.235400000000     0          
O        O      0.558350000000     0.601100000000     0.236700000000     0          
O        O      0.590600000000     0.687200000000     0.252900000000     0          
O        O      0.649500000000     0.662950000000     0.258500000000     0          
O        O      0.599700000000     0.658150000000     0.274000000000     0          
O        O      0.551450000000     0.750000000000     0.346700000000     0          
O        O      0.559550000000     0.694200000000     0.359200000000     0          
O        O      0.500000000000     0.714200000000     0.353200000000     0          
O        O      0.540500000000     0.691400000000     0.336400000000     0          
O        O      0.750000000000     0.695150000000     0.363900000000     0          
O        O      0.707850000000     0.710100000000     0.381300000000     0          
O        O      0.688450000000     0.710600000000     0.358400000000     0          
O        O      0.701550000000     0.653900000000     0.369200000000     0          
O        O      0.595700000000     0.703200000000     0.378600000000     0          
O        O      0.623250000000     0.706850000000     0.357000000000     0          
O        O      0.603350000000     0.648800000000     0.365400000000     0          
O        O      0.690550000000     0.750000000000     0.399000000000     0          
O        O      0.704700000000     0.686900000000     0.403600000000     0          
O        O      0.649900000000     0.702550000000     0.392000000000     0          
O        O      0.655750000000     0.750000000000     0.343800000000     0          
O        O      0.500000000000     0.687900000000     0.228200000000     0          
O        O      0.537650000000     0.706150000000     0.210000000000     0          
O        O      0.548350000000     0.648950000000     0.221000000000     0          
O        O      0.562000000000     0.705250000000     0.232300000000     0          
O        O      0.551000000000     0.663800000000     0.315200000000     0          
O        O      0.500000000000     0.555350000000     0.302000000000     0          
O        O      0.547800000000     0.540350000000     0.317300000000     0          
O        O      0.561650000000     0.554200000000     0.294300000000     0          
O        O      0.541800000000     0.601650000000     0.309100000000     0          
O        O      0.690750000000     0.555650000000     0.298000000000     0          
O        O      0.649800000000     0.599450000000     0.307700000000     0          
O        O      0.626350000000     0.547750000000     0.295800000000     0          
O        O      0.750000000000     0.550900000000     0.288300000000     0          
O        O      0.710700000000     0.600350000000     0.282100000000     0          
O        O      0.697350000000     0.539550000000     0.274800000000     0          
O        O      0.605400000000     0.750000000000     0.395100000000     0          
O        O      0.592100000000     0.688550000000     0.401800000000     0          
O        O      0.698950000000     0.750000000000     0.244700000000     0          
O        O      0.707650000000     0.691200000000     0.255000000000     0          
O        O      0.690200000000     0.694900000000     0.232000000000     0          
O        O      0.750000000000     0.713050000000     0.238600000000     0          
O        O      0.600850000000     0.598900000000     0.284100000000     0          
O        O      0.588150000000     0.750000000000     0.246700000000     0          
O        O      0.627000000000     0.709450000000     0.234600000000     0          
O        O      0.689150000000     0.600950000000     0.476900000000     0          
O        O      0.647250000000     0.625050000000     0.460700000000     0          
O        O      0.624500000000     0.592100000000     0.479600000000     0          
O        O      0.657300000000     0.560900000000     0.462300000000     0          
O        O      0.604300000000     0.625150000000     0.397900000000     0          
O        O      0.624850000000     0.654100000000     0.418000000000     0          
O        O      0.560950000000     0.642900000000     0.414600000000     0          
O        O      0.688100000000     0.607400000000     0.353200000000     0          
O        O      0.624800000000     0.592050000000     0.356500000000     0          
O        O      0.688450000000     0.638450000000     0.418600000000     0          
O        O      0.703000000000     0.624900000000     0.395800000000     0          
O        O      0.750000000000     0.644100000000     0.410900000000     0          
O        O      0.690850000000     0.643750000000     0.298500000000     0          
O        O      0.695450000000     0.661000000000     0.275600000000     0          
O        O      0.750000000000     0.649900000000     0.288200000000     0          
O        O      0.646950000000     0.750000000000     0.465100000000     0          
O        O      0.688550000000     0.713900000000     0.477700000000     0          
O        O      0.660250000000     0.688600000000     0.458300000000     0          
O        O      0.624550000000     0.699700000000     0.477900000000     0          
O        O      0.559700000000     0.602350000000     0.479300000000     0          
O        O      0.552300000000     0.625850000000     0.457100000000     0          
O        O      0.500000000000     0.607100000000     0.469700000000     0          
O        O      0.542000000000     0.562300000000     0.461500000000     0          
O        O      0.651650000000     0.599050000000     0.214400000000     0          
O        O      0.645050000000     0.647950000000     0.230000000000     0          
O        O      0.500000000000     0.606750000000     0.226200000000     0          
O        O      0.552050000000     0.587400000000     0.213400000000     0          
O        O      0.690900000000     0.655950000000     0.175300000000     0          
O        O      0.695500000000     0.640750000000     0.152100000000     0          
O        O      0.750000000000     0.648700000000     0.165100000000     0          
O        O      0.711600000000     0.596950000000     0.168900000000     0          
O        O      0.560250000000     0.594500000000     0.113900000000     0          
O        O      0.551450000000     0.651100000000     0.102300000000     0          
O        O      0.500000000000     0.614550000000     0.108500000000     0          
O        O      0.540350000000     0.593800000000     0.091300000000     0          
O        O      0.561500000000     0.641250000000     0.171300000000     0          
O        O      0.500000000000     0.645800000000     0.179000000000     0          
O        O      0.546500000000     0.624050000000     0.193800000000     0          
O        O      0.545350000000     0.687100000000     0.187300000000     0          
O        O      0.561100000000     0.645200000000     0.292700000000     0          
O        O      0.626050000000     0.650400000000     0.295600000000     0          
O        O      0.599600000000     0.705400000000     0.499900000000     0          
O        O      0.599750000000     0.647250000000     0.488800000000     0          
O        O      0.560050000000     0.695200000000     0.481400000000     0          
O        O      0.550500000000     0.662250000000     0.437200000000     0          
O        O      0.602250000000     0.665500000000     0.451600000000     0          
O        O      0.544800000000     0.691100000000     0.458300000000     0          
O        O      0.656700000000     0.627750000000     0.193000000000     0          
O        O      0.625750000000     0.651600000000     0.173800000000     0          
O        O      0.653450000000     0.692550000000     0.189400000000     0          
O        O      0.500000000000     0.645650000000     0.423200000000     0          
O        O      0.541500000000     0.600000000000     0.431200000000     0          
O        O      0.597600000000     0.658700000000     0.152500000000     0          
O        O      0.604000000000     0.598900000000     0.162000000000     0          
O        O      0.687650000000     0.586600000000     0.110200000000     0          
O        O      0.664250000000     0.645050000000     0.104800000000     0          
O        O      0.644900000000     0.592600000000     0.092200000000     0          
O        O      0.625400000000     0.599950000000     0.115000000000     0          
O        O      0.500000000000     0.710850000000     0.474200000000     0          
O        O      0.550150000000     0.750000000000     0.468800000000     0          
O        O      0.500000000000     0.647500000000     0.301400000000     0          
O        O      0.750000000000     0.693950000000     0.481700000000     0          
O        O      0.699750000000     0.656600000000     0.488600000000     0          
O        O      0.712550000000     0.712550000000     0.500000000000     0          
O        O      0.656000000000     0.542300000000     0.439400000000     0          
O        O      0.643500000000     0.596150000000     0.426600000000     0          
O        O      0.689450000000     0.554050000000     0.419300000000     0          
O        O      0.626300000000     0.537550000000     0.418100000000     0          
O        O      0.701350000000     0.624850000000     0.129000000000     0          
O        O      0.714250000000     0.560550000000     0.129900000000     0          
O        O      0.750000000000     0.599500000000     0.116100000000     0          
O        O      0.656150000000     0.650650000000     0.438900000000     0          
O        O      0.592500000000     0.564000000000     0.131200000000     0          
O        O      0.588000000000     0.629050000000     0.131500000000     0          
O        O      0.688950000000     0.653200000000     0.054900000000     0          
O        O      0.704350000000     0.658400000000     0.031900000000     0          
O        O      0.750000000000     0.640450000000     0.047800000000     0          
O        O      0.701250000000     0.599400000000     0.042200000000     0          
O        O      0.562200000000     0.603550000000     0.994700000000     0          
O        O      0.626200000000     0.605200000000     0.989400000000     0          
O        O      0.601100000000     0.559600000000     0.397500000000     0          
O        O      0.562750000000     0.552950000000     0.416600000000     0          
O        O      0.585750000000     0.500000000000     0.405500000000     0          
O        O      0.558900000000     0.645000000000     0.049400000000     0          
O        O      0.598000000000     0.600350000000     0.039100000000     0          
O        O      0.595100000000     0.661000000000     0.030500000000     0          
O        O      0.624050000000     0.649400000000     0.051600000000     0          
O        O      0.709850000000     0.750000000000     0.005900000000     0          
O        O      0.709200000000     0.685550000000     0.010400000000     0          
O        O      0.648850000000     0.690400000000     0.067800000000     0          
O        O      0.651700000000     0.626050000000     0.071800000000     0          
O        O      0.593300000000     0.593600000000     0.377400000000     0          
O        O      0.535900000000     0.624450000000     0.070400000000     0          
O        O      0.554400000000     0.686950000000     0.067800000000     0          
O        O      0.500000000000     0.664750000000     0.057200000000     0          
O        O      0.707550000000     0.591350000000     0.375400000000     0          
O        O      0.750000000000     0.617900000000     0.360000000000     0          
O        O      0.750000000000     0.616700000000     0.483700000000     0          
O        O      0.691200000000     0.595000000000     0.990700000000     0          
O        O      0.694250000000     0.622350000000     0.012300000000     0          
O        O      0.713300000000     0.561000000000     0.009500000000     0          
O        O      0.750000000000     0.608750000000     0.000400000000     0          
O        O      0.650600000000     0.668200000000     0.018600000000     0          
O        O      0.546300000000     0.559650000000     0.071100000000     0          
O        O      0.549550000000     0.500000000000     0.061400000000     0          
O        O      0.559950000000     0.552950000000     0.047900000000     0          
O        O      0.500000000000     0.539900000000     0.055800000000     0          
O        O      0.594100000000     0.542950000000     0.027800000000     0          
O        O      0.625150000000     0.546850000000     0.048800000000     0          
O        O      0.705150000000     0.559200000000     0.396200000000     0          
O        O      0.652100000000     0.590150000000     0.387800000000     0          
O        O      0.705200000000     0.750000000000     0.128000000000     0          
O        O      0.688350000000     0.702100000000     0.112900000000     0          
O        O      0.702450000000     0.687700000000     0.135500000000     0          
O        O      0.750000000000     0.706750000000     0.120700000000     0          
O        O      0.560850000000     0.500000000000     0.457600000000     0          
O        O      0.545650000000     0.538500000000     0.439200000000     0          
O        O      0.600100000000     0.549850000000     0.451600000000     0          
O        O      0.590700000000     0.590700000000     0.500000000000     0          
O        O      0.640050000000     0.500000000000     0.456600000000     0          
O        O      0.616400000000     0.500000000000     0.011700000000     0          
O        O      0.654600000000     0.549200000000     0.019300000000     0          
O        O      0.750000000000     0.560450000000     0.049300000000     0          
O        O      0.688150000000     0.545650000000     0.055000000000     0          
O        O      0.708850000000     0.540550000000     0.032300000000     0          
O        O      0.593700000000     0.601200000000     0.077700000000     0          
O        O      0.549500000000     0.558850000000     0.192000000000     0          
O        O      0.500000000000     0.546150000000     0.177000000000     0          
O        O      0.561600000000     0.552150000000     0.168800000000     0          
O        O      0.544600000000     0.500000000000     0.181800000000     0          
O        O      0.695100000000     0.500000000000     0.014300000000     0          
O        O      0.662000000000     0.698300000000     0.091100000000     0          
O        O      0.623600000000     0.693650000000     0.110300000000     0          
O        O      0.500000000000     0.688200000000     0.108100000000     0          
O        O      0.560650000000     0.709300000000     0.112800000000     0          
O        O      0.539050000000     0.705700000000     0.090100000000     0          
O        O      0.647950000000     0.750000000000     0.077400000000     0          
O        O      0.601050000000     0.706650000000     0.083000000000     0          
O        O      0.647300000000     0.500000000000     0.063300000000     0          
O        O      0.642600000000     0.561350000000     0.071200000000     0          
O        O      0.750000000000     0.544500000000     0.166600000000     0          
O        O      0.689500000000     0.538400000000     0.175800000000     0          
O        O      0.697250000000     0.551450000000     0.152600000000     0          
O        O      0.608150000000     0.539200000000     0.152700000000     0          
O        O      0.624500000000     0.548800000000     0.175400000000     0          
O        O      0.607150000000     0.750000000000     0.120800000000     0          
O        O      0.596550000000     0.693450000000     0.132100000000     0          
O        O      0.558600000000     0.750000000000     0.074100000000     0          
O        O      0.650900000000     0.694100000000     0.213100000000     0          
O        O      0.646850000000     0.653600000000     0.136800000000     0          
O        O      0.604800000000     0.500000000000     0.133800000000     0          
O        O      0.653350000000     0.543200000000     0.135300000000     0          
O        O      0.702350000000     0.500000000000     0.137900000000     0          
O        O      0.602700000000     0.593500000000     0.198500000000     0          
O        O      0.553100000000     0.750000000000     0.193300000000     0          
O        O      0.597150000000     0.705750000000     0.200300000000     0          
O        O      0.645800000000     0.750000000000     0.200600000000     0          
O        O      0.659150000000     0.562550000000     0.194900000000     0          
O        O      0.559900000000     0.500000000000     0.335400000000     0          
O        O      0.686000000000     0.500000000000     0.256300000000     0          
O        O      0.649750000000     0.500000000000     0.188400000000     0          
O        O      0.750000000000     0.539950000000     0.412100000000     0          
O        O      0.700700000000     0.500000000000     0.406400000000     0          
O        O      0.500000000000     0.554600000000     0.423200000000     0          
T        Si     0.609300000000     0.537850000000     0.261000000000     0          
T        Si     0.639600000000     0.537750000000     0.330600000000     0          
T        Si     0.638850000000     0.659700000000     0.330800000000     0          
T        Si     0.538650000000     0.600200000000     0.344800000000     0          
T        Si     0.711900000000     0.596950000000     0.246000000000     0          
T        Si     0.591500000000     0.593300000000     0.244400000000     0          
T        Si     0.610000000000     0.657750000000     0.259800000000     0          
T        Si     0.538200000000     0.712600000000     0.348800000000     0          
T        Si     0.711850000000     0.692500000000     0.368300000000     0          
T        Si     0.595650000000     0.688050000000     0.365100000000     0          
T        Si     0.688300000000     0.712350000000     0.394100000000     0          
T        Si     0.656850000000     0.713000000000     0.349400000000     0          
T        Si     0.537300000000     0.687100000000     0.222900000000     0          
T        Si     0.560850000000     0.662600000000     0.329400000000     0          
T        Si     0.538000000000     0.562850000000     0.305700000000     0          
T        Si     0.655450000000     0.560700000000     0.304700000000     0          
T        Si     0.712000000000     0.561600000000     0.285800000000     0          
T        Si     0.610850000000     0.711300000000     0.391800000000     0          
T        Si     0.711550000000     0.712350000000     0.242700000000     0          
T        Si     0.596200000000     0.560050000000     0.287200000000     0          
T        Si     0.591950000000     0.712600000000     0.241600000000     0          
T        Si     0.654450000000     0.594950000000     0.470000000000     0          
T        Si     0.595500000000     0.652500000000     0.408100000000     0          
T        Si     0.654150000000     0.596200000000     0.346700000000     0          
T        Si     0.711450000000     0.648600000000     0.407200000000     0          
T        Si     0.711900000000     0.638850000000     0.286200000000     0          
T        Si     0.655000000000     0.712850000000     0.469700000000     0          
T        Si     0.538600000000     0.599450000000     0.466900000000     0          
T        Si     0.651900000000     0.608650000000     0.228600000000     0          
T        Si     0.539450000000     0.610950000000     0.224300000000     0          
T        Si     0.712050000000     0.635750000000     0.165300000000     0          
T        Si     0.538050000000     0.613600000000     0.104000000000     0          
T        Si     0.538450000000     0.649500000000     0.182900000000     0          
T        Si     0.596850000000     0.638150000000     0.286600000000     0          
T        Si     0.596100000000     0.686800000000     0.487000000000     0          
T        Si     0.562450000000     0.661000000000     0.451100000000     0          
T        Si     0.656700000000     0.656750000000     0.182900000000     0          
T        Si     0.538250000000     0.637750000000     0.426500000000     0          
T        Si     0.597300000000     0.637600000000     0.164900000000     0          
T        Si     0.655150000000     0.606100000000     0.105400000000     0          
T        Si     0.538800000000     0.711900000000     0.470600000000     0          
T        Si     0.538300000000     0.639550000000     0.304500000000     0          
T        Si     0.712600000000     0.694300000000     0.487000000000     0          
T        Si     0.653850000000     0.557500000000     0.425800000000     0          
T        Si     0.713050000000     0.592950000000     0.121300000000     0          
T        Si     0.653350000000     0.634850000000     0.425500000000     0          
T        Si     0.591900000000     0.596950000000     0.122900000000     0          
T        Si     0.711300000000     0.637800000000     0.044200000000     0          
T        Si     0.599350000000     0.599350000000     0.000000000000     0          
T        Si     0.594100000000     0.537700000000     0.409400000000     0          
T        Si     0.594050000000     0.638950000000     0.042800000000     0          
T        Si     0.713400000000     0.713400000000     0.000000000000     0          
T        Si     0.653150000000     0.654550000000     0.061500000000     0          
T        Si     0.595250000000     0.609750000000     0.364000000000     0          
T        Si     0.537500000000     0.655500000000     0.061200000000     0          
T        Si     0.711800000000     0.617500000000     0.364400000000     0          
T        Si     0.711250000000     0.618400000000     0.487300000000     0          
T        Si     0.712350000000     0.597050000000     0.003100000000     0          
T        Si     0.689450000000     0.658450000000     0.018300000000     0          
T        Si     0.611300000000     0.661550000000     0.017200000000     0          
T        Si     0.538950000000     0.538150000000     0.059100000000     0          
T        Si     0.594350000000     0.560800000000     0.040900000000     0          
T        Si     0.692000000000     0.591400000000     0.388900000000     0          
T        Si     0.711500000000     0.711700000000     0.124300000000     0          
T        Si     0.562000000000     0.537650000000     0.452600000000     0          
T        Si     0.654950000000     0.638300000000     0.304700000000     0          
T        Si     0.593500000000     0.608050000000     0.486800000000     0          
T        Si     0.638400000000     0.538300000000     0.452400000000     0          
T        Si     0.617100000000     0.538350000000     0.015900000000     0          
T        Si     0.711950000000     0.561450000000     0.044700000000     0          
T        Si     0.554200000000     0.594700000000     0.077600000000     0          
T        Si     0.641350000000     0.657200000000     0.452300000000     0          
T        Si     0.538650000000     0.539250000000     0.179900000000     0          
T        Si     0.693000000000     0.537950000000     0.018900000000     0          
T        Si     0.659650000000     0.684850000000     0.104900000000     0          
T        Si     0.537900000000     0.688700000000     0.103400000000     0          
T        Si     0.639900000000     0.711350000000     0.079900000000     0          
T        Si     0.650800000000     0.538550000000     0.059600000000     0          
T        Si     0.633250000000     0.595200000000     0.078200000000     0          
T        Si     0.612650000000     0.592250000000     0.390200000000     0          
T        Si     0.712200000000     0.557700000000     0.166000000000     0          
T        Si     0.599350000000     0.559850000000     0.164800000000     0          
T        Si     0.596850000000     0.711600000000     0.119000000000     0          
T        Si     0.563100000000     0.712150000000     0.078700000000     0          
T        Si     0.653150000000     0.686500000000     0.227400000000     0          
T        Si     0.686600000000     0.651750000000     0.138400000000     0          
T        Si     0.614650000000     0.536900000000     0.138300000000     0          
T        Si     0.691850000000     0.538550000000     0.139000000000     0          
T        Si     0.562850000000     0.590750000000     0.199400000000     0          
T        Si     0.607350000000     0.658800000000     0.138300000000     0          
T        Si     0.558250000000     0.712150000000     0.197700000000     0          
T        Si     0.636800000000     0.711000000000     0.200800000000     0          
T        Si     0.642400000000     0.596000000000     0.200200000000     0          
T        Si     0.562700000000     0.537950000000     0.330800000000     0          
T        Si     0.684700000000     0.538000000000     0.261000000000     0          
T        Si     0.655650000000     0.537500000000     0.183600000000     0          
T        Si     0.688750000000     0.660150000000     0.261100000000     0          
T        Si     0.711250000000     0.538250000000     0.408400000000     0          
T        Si     0.537650000000     0.561400000000     0.427600000000     0          
O        O      0.551450000000     0.853050000000     0.739600000000     0          
O        O      0.539100000000     0.904050000000     0.725200000000     0          
O        O      0.500000000000     0.891300000000     0.743800000000     0          
O        O      0.559850000000     0.914050000000     0.747800000000     0          
O        O      0.539850000000     0.845050000000     0.682800000000     0          
O        O      0.561350000000     0.839850000000     0.660200000000     0          
O        O      0.500000000000     0.858150000000     0.664500000000     0          
O        O      0.549150000000     0.898800000000     0.669600000000     0          
O        O      0.623300000000     0.856700000000     0.663300000000     0          
O        O      0.686100000000     0.840100000000     0.661300000000     0          
O        O      0.659550000000     0.847350000000     0.682900000000     0          
O        O      0.669600000000     0.899950000000     0.669100000000     0          
O        O      0.562900000000     0.957200000000     0.660300000000     0          
O        O      0.607000000000     0.500000000000     0.652200000000     0          
O        O      0.604400000000     0.939600000000     0.643000000000     0          
O        O      0.626650000000     0.948500000000     0.665100000000     0          
O        O      0.561200000000     0.792350000000     0.747500000000     0          
O        O      0.601150000000     0.750000000000     0.758300000000     0          
O        O      0.599450000000     0.812600000000     0.765500000000     0          
O        O      0.625850000000     0.797050000000     0.744400000000     0          
O        O      0.622950000000     0.900900000000     0.746200000000     0          
O        O      0.588550000000     0.877200000000     0.764600000000     0          
O        O      0.601100000000     0.941650000000     0.763300000000     0          
O        O      0.687200000000     0.909400000000     0.747100000000     0          
O        O      0.662950000000     0.850500000000     0.741500000000     0          
O        O      0.658150000000     0.900300000000     0.726000000000     0          
O        O      0.750000000000     0.948550000000     0.653300000000     0          
O        O      0.694200000000     0.940450000000     0.640800000000     0          
O        O      0.714200000000     0.500000000000     0.646800000000     0          
O        O      0.691400000000     0.959500000000     0.663600000000     0          
O        O      0.695150000000     0.750000000000     0.636100000000     0          
O        O      0.710100000000     0.792150000000     0.618700000000     0          
O        O      0.710600000000     0.811550000000     0.641600000000     0          
O        O      0.653900000000     0.798450000000     0.630800000000     0          
O        O      0.703200000000     0.904300000000     0.621400000000     0          
O        O      0.706850000000     0.876750000000     0.643000000000     0          
O        O      0.648800000000     0.896650000000     0.634600000000     0          
O        O      0.750000000000     0.809450000000     0.601000000000     0          
O        O      0.686900000000     0.795300000000     0.596400000000     0          
O        O      0.702550000000     0.850100000000     0.608000000000     0          
O        O      0.750000000000     0.844250000000     0.656200000000     0          
O        O      0.687900000000     0.500000000000     0.771800000000     0          
O        O      0.706150000000     0.962350000000     0.790000000000     0          
O        O      0.648950000000     0.951650000000     0.779000000000     0          
O        O      0.705250000000     0.938000000000     0.767700000000     0          
O        O      0.663800000000     0.949000000000     0.684800000000     0          
O        O      0.555350000000     0.500000000000     0.698000000000     0          
O        O      0.540350000000     0.952200000000     0.682700000000     0          
O        O      0.554200000000     0.938350000000     0.705700000000     0          
O        O      0.601650000000     0.958200000000     0.690900000000     0          
O        O      0.555650000000     0.809250000000     0.702000000000     0          
O        O      0.599450000000     0.850200000000     0.692300000000     0          
O        O      0.547750000000     0.873650000000     0.704200000000     0          
O        O      0.550900000000     0.750000000000     0.711700000000     0          
O        O      0.600350000000     0.789300000000     0.717900000000     0          
O        O      0.539550000000     0.802650000000     0.725200000000     0          
O        O      0.750000000000     0.894600000000     0.604900000000     0          
O        O      0.688550000000     0.907900000000     0.598200000000     0          
O        O      0.750000000000     0.801050000000     0.755300000000     0          
O        O      0.691200000000     0.792350000000     0.745000000000     0          
O        O      0.694900000000     0.809800000000     0.768000000000     0          
O        O      0.713050000000     0.750000000000     0.761400000000     0          
O        O      0.598900000000     0.899150000000     0.715900000000     0          
O        O      0.750000000000     0.911850000000     0.753300000000     0          
O        O      0.709450000000     0.873000000000     0.765400000000     0          
O        O      0.600950000000     0.810850000000     0.523100000000     0          
O        O      0.625050000000     0.852750000000     0.539300000000     0          
O        O      0.592100000000     0.875500000000     0.520400000000     0          
O        O      0.560900000000     0.842700000000     0.537700000000     0          
O        O      0.625150000000     0.895700000000     0.602100000000     0          
O        O      0.654100000000     0.875150000000     0.582000000000     0          
O        O      0.642900000000     0.939050000000     0.585400000000     0          
O        O      0.607400000000     0.811900000000     0.646800000000     0          
O        O      0.592050000000     0.875200000000     0.643500000000     0          
O        O      0.638450000000     0.811550000000     0.581400000000     0          
O        O      0.624900000000     0.797000000000     0.604200000000     0          
O        O      0.644100000000     0.750000000000     0.589100000000     0          
O        O      0.643750000000     0.809150000000     0.701500000000     0          
O        O      0.661000000000     0.804550000000     0.724400000000     0          
O        O      0.649900000000     0.750000000000     0.711800000000     0          
O        O      0.750000000000     0.853050000000     0.534900000000     0          
O        O      0.713900000000     0.811450000000     0.522300000000     0          
O        O      0.688600000000     0.839750000000     0.541700000000     0          
O        O      0.699700000000     0.875450000000     0.522100000000     0          
O        O      0.602350000000     0.940300000000     0.520700000000     0          
O        O      0.625850000000     0.947700000000     0.542900000000     0          
O        O      0.607100000000     0.500000000000     0.530300000000     0          
O        O      0.562300000000     0.958000000000     0.538500000000     0          
O        O      0.599050000000     0.848350000000     0.785600000000     0          
O        O      0.647950000000     0.854950000000     0.770000000000     0          
O        O      0.606750000000     0.500000000000     0.773800000000     0          
O        O      0.587400000000     0.947950000000     0.786600000000     0          
O        O      0.655950000000     0.809100000000     0.824700000000     0          
O        O      0.640750000000     0.804500000000     0.847900000000     0          
O        O      0.648700000000     0.750000000000     0.834900000000     0          
O        O      0.596950000000     0.788400000000     0.831100000000     0          
O        O      0.594500000000     0.939750000000     0.886100000000     0          
O        O      0.651100000000     0.948550000000     0.897700000000     0          
O        O      0.614550000000     0.500000000000     0.891500000000     0          
O        O      0.593800000000     0.959650000000     0.908700000000     0          
O        O      0.641250000000     0.938500000000     0.828700000000     0          
O        O      0.645800000000     0.500000000000     0.821000000000     0          
O        O      0.624050000000     0.953500000000     0.806200000000     0          
O        O      0.687100000000     0.954650000000     0.812700000000     0          
O        O      0.645200000000     0.938900000000     0.707300000000     0          
O        O      0.650400000000     0.873950000000     0.704400000000     0          
O        O      0.705400000000     0.900400000000     0.500100000000     0          
O        O      0.647250000000     0.900250000000     0.511200000000     0          
O        O      0.695200000000     0.939950000000     0.518600000000     0          
O        O      0.662250000000     0.949500000000     0.562800000000     0          
O        O      0.665500000000     0.897750000000     0.548400000000     0          
O        O      0.691100000000     0.955200000000     0.541700000000     0          
O        O      0.627750000000     0.843300000000     0.807000000000     0          
O        O      0.651600000000     0.874250000000     0.826200000000     0          
O        O      0.692550000000     0.846550000000     0.810600000000     0          
O        O      0.645650000000     0.500000000000     0.576800000000     0          
O        O      0.600000000000     0.958500000000     0.568800000000     0          
O        O      0.658700000000     0.902400000000     0.847500000000     0          
O        O      0.598900000000     0.896000000000     0.838000000000     0          
O        O      0.586600000000     0.812350000000     0.889800000000     0          
O        O      0.645050000000     0.835750000000     0.895200000000     0          
O        O      0.592600000000     0.855100000000     0.907800000000     0          
O        O      0.599950000000     0.874600000000     0.885000000000     0          
O        O      0.710850000000     0.500000000000     0.525800000000     0          
O        O      0.750000000000     0.949850000000     0.531200000000     0          
O        O      0.647500000000     0.500000000000     0.698600000000     0          
O        O      0.693950000000     0.750000000000     0.518300000000     0          
O        O      0.656600000000     0.800250000000     0.511400000000     0          
O        O      0.712550000000     0.787450000000     0.500000000000     0          
O        O      0.542300000000     0.844000000000     0.560600000000     0          
O        O      0.596150000000     0.856500000000     0.573400000000     0          
O        O      0.554050000000     0.810550000000     0.580700000000     0          
O        O      0.537550000000     0.873700000000     0.581900000000     0          
O        O      0.624850000000     0.798650000000     0.871000000000     0          
O        O      0.560550000000     0.785750000000     0.870100000000     0          
O        O      0.599500000000     0.750000000000     0.883900000000     0          
O        O      0.650650000000     0.843850000000     0.561100000000     0          
O        O      0.564000000000     0.907500000000     0.868800000000     0          
O        O      0.629050000000     0.912000000000     0.868500000000     0          
O        O      0.653200000000     0.811050000000     0.945100000000     0          
O        O      0.658400000000     0.795650000000     0.968100000000     0          
O        O      0.640450000000     0.750000000000     0.952200000000     0          
O        O      0.599400000000     0.798750000000     0.957800000000     0          
O        O      0.603550000000     0.937800000000     0.005300000000     0          
O        O      0.605200000000     0.873800000000     0.010600000000     0          
O        O      0.559600000000     0.898900000000     0.602500000000     0          
O        O      0.552950000000     0.937250000000     0.583400000000     0          
O        O      0.500000000000     0.914250000000     0.594500000000     0          
O        O      0.645000000000     0.941100000000     0.950600000000     0          
O        O      0.600350000000     0.902000000000     0.960900000000     0          
O        O      0.661000000000     0.904900000000     0.969500000000     0          
O        O      0.649400000000     0.875950000000     0.948400000000     0          
O        O      0.750000000000     0.790150000000     0.994100000000     0          
O        O      0.685550000000     0.790800000000     0.989600000000     0          
O        O      0.690400000000     0.851150000000     0.932200000000     0          
O        O      0.626050000000     0.848300000000     0.928200000000     0          
O        O      0.593600000000     0.906700000000     0.622600000000     0          
O        O      0.624450000000     0.964100000000     0.929600000000     0          
O        O      0.686950000000     0.945600000000     0.932200000000     0          
O        O      0.664750000000     0.500000000000     0.942800000000     0          
O        O      0.591350000000     0.792450000000     0.624600000000     0          
O        O      0.617900000000     0.750000000000     0.640000000000     0          
O        O      0.616700000000     0.750000000000     0.516300000000     0          
O        O      0.595000000000     0.808800000000     0.009300000000     0          
O        O      0.622350000000     0.805750000000     0.987700000000     0          
O        O      0.561000000000     0.786700000000     0.990500000000     0          
O        O      0.608750000000     0.750000000000     0.999600000000     0          
O        O      0.668200000000     0.849400000000     0.981400000000     0          
O        O      0.559650000000     0.953700000000     0.928900000000     0          
O        O      0.500000000000     0.950450000000     0.938600000000     0          
O        O      0.552950000000     0.940050000000     0.952100000000     0          
O        O      0.539900000000     0.500000000000     0.944200000000     0          
O        O      0.542950000000     0.905900000000     0.972200000000     0          
O        O      0.546850000000     0.874850000000     0.951200000000     0          
O        O      0.559200000000     0.794850000000     0.603800000000     0          
O        O      0.590150000000     0.847900000000     0.612200000000     0          
O        O      0.750000000000     0.794800000000     0.872000000000     0          
O        O      0.702100000000     0.811650000000     0.887100000000     0          
O        O      0.687700000000     0.797550000000     0.864500000000     0          
O        O      0.706750000000     0.750000000000     0.879300000000     0          
O        O      0.500000000000     0.939150000000     0.542400000000     0          
O        O      0.538500000000     0.954350000000     0.560800000000     0          
O        O      0.549850000000     0.899900000000     0.548400000000     0          
O        O      0.590700000000     0.909300000000     0.500000000000     0          
O        O      0.500000000000     0.859950000000     0.543400000000     0          
O        O      0.500000000000     0.883600000000     0.988300000000     0          
O        O      0.549200000000     0.845400000000     0.980700000000     0          
O        O      0.560450000000     0.750000000000     0.950700000000     0          
O        O      0.545650000000     0.811850000000     0.945000000000     0          
O        O      0.540550000000     0.791150000000     0.967700000000     0          
O        O      0.601200000000     0.906300000000     0.922300000000     0          
O        O      0.558850000000     0.950500000000     0.808000000000     0          
O        O      0.546150000000     0.500000000000     0.823000000000     0          
O        O      0.552150000000     0.938400000000     0.831200000000     0          
O        O      0.500000000000     0.955400000000     0.818200000000     0          
O        O      0.500000000000     0.804900000000     0.985700000000     0          
O        O      0.698300000000     0.838000000000     0.908900000000     0          
O        O      0.693650000000     0.876400000000     0.889700000000     0          
O        O      0.688200000000     0.500000000000     0.891900000000     0          
O        O      0.709300000000     0.939350000000     0.887200000000     0          
O        O      0.705700000000     0.960950000000     0.909900000000     0          
O        O      0.750000000000     0.852050000000     0.922600000000     0          
O        O      0.706650000000     0.898950000000     0.917000000000     0          
O        O      0.500000000000     0.852700000000     0.936700000000     0          
O        O      0.561350000000     0.857400000000     0.928800000000     0          
O        O      0.544500000000     0.750000000000     0.833400000000     0          
O        O      0.538400000000     0.810500000000     0.824200000000     0          
O        O      0.551450000000     0.802750000000     0.847400000000     0          
O        O      0.539200000000     0.891850000000     0.847300000000     0          
O        O      0.548800000000     0.875500000000     0.824600000000     0          
O        O      0.750000000000     0.892850000000     0.879200000000     0          
O        O      0.693450000000     0.903450000000     0.867900000000     0          
O        O      0.750000000000     0.941400000000     0.925900000000     0          
O        O      0.694100000000     0.849100000000     0.786900000000     0          
O        O      0.653600000000     0.853150000000     0.863200000000     0          
O        O      0.500000000000     0.895200000000     0.866200000000     0          
O        O      0.543200000000     0.846650000000     0.864700000000     0          
O        O      0.500000000000     0.797650000000     0.862100000000     0          
O        O      0.593500000000     0.897300000000     0.801500000000     0          
O        O      0.750000000000     0.946900000000     0.806700000000     0          
O        O      0.705750000000     0.902850000000     0.799700000000     0          
O        O      0.750000000000     0.854200000000     0.799400000000     0          
O        O      0.562550000000     0.840850000000     0.805100000000     0          
O        O      0.500000000000     0.940100000000     0.664600000000     0          
O        O      0.500000000000     0.814000000000     0.743700000000     0          
O        O      0.500000000000     0.850250000000     0.811600000000     0          
O        O      0.539950000000     0.750000000000     0.587900000000     0          
O        O      0.500000000000     0.799300000000     0.593600000000     0          
O        O      0.554600000000     0.500000000000     0.576800000000     0          
T        Si     0.537850000000     0.890700000000     0.739000000000     0          
T        Si     0.537750000000     0.860400000000     0.669400000000     0          
T        Si     0.659700000000     0.861150000000     0.669200000000     0          
T        Si     0.600200000000     0.961350000000     0.655200000000     0          
T        Si     0.596950000000     0.788100000000     0.754000000000     0          
T        Si     0.593300000000     0.908500000000     0.755600000000     0          
T        Si     0.657750000000     0.890000000000     0.740200000000     0          
T        Si     0.712600000000     0.961800000000     0.651200000000     0          
T        Si     0.692500000000     0.788150000000     0.631700000000     0          
T        Si     0.688050000000     0.904350000000     0.634900000000     0          
T        Si     0.712350000000     0.811700000000     0.605900000000     0          
T        Si     0.713000000000     0.843150000000     0.650600000000     0          
T        Si     0.687100000000     0.962700000000     0.777100000000     0          
T        Si     0.662600000000     0.939150000000     0.670600000000     0          
T        Si     0.562850000000     0.962000000000     0.694300000000     0          
T        Si     0.560700000000     0.844550000000     0.695300000000     0          
T        Si     0.561600000000     0.788000000000     0.714200000000     0          
T        Si     0.711300000000     0.889150000000     0.608200000000     0          
T        Si     0.712350000000     0.788450000000     0.757300000000     0          
T        Si     0.560050000000     0.903800000000     0.712800000000     0          
T        Si     0.712600000000     0.908050000000     0.758400000000     0          
T        Si     0.594950000000     0.845550000000     0.530000000000     0          
T        Si     0.652500000000     0.904500000000     0.591900000000     0          
T        Si     0.596200000000     0.845850000000     0.653300000000     0          
T        Si     0.648600000000     0.788550000000     0.592800000000     0          
T        Si     0.638850000000     0.788100000000     0.713800000000     0          
T        Si     0.712850000000     0.845000000000     0.530300000000     0          
T        Si     0.599450000000     0.961400000000     0.533100000000     0          
T        Si     0.608650000000     0.848100000000     0.771400000000     0          
T        Si     0.610950000000     0.960550000000     0.775700000000     0          
T        Si     0.635750000000     0.787950000000     0.834700000000     0          
T        Si     0.613600000000     0.961950000000     0.896000000000     0          
T        Si     0.649500000000     0.961550000000     0.817100000000     0          
T        Si     0.638150000000     0.903150000000     0.713400000000     0          
T        Si     0.686800000000     0.903900000000     0.513000000000     0          
T        Si     0.661000000000     0.937550000000     0.548900000000     0          
T        Si     0.656750000000     0.843300000000     0.817100000000     0          
T        Si     0.637750000000     0.961750000000     0.573500000000     0          
T        Si     0.637600000000     0.902700000000     0.835100000000     0          
T        Si     0.606100000000     0.844850000000     0.894600000000     0          
T        Si     0.711900000000     0.961200000000     0.529400000000     0          
T        Si     0.639550000000     0.961700000000     0.695500000000     0          
T        Si     0.694300000000     0.787400000000     0.513000000000     0          
T        Si     0.557500000000     0.846150000000     0.574200000000     0          
T        Si     0.592950000000     0.786950000000     0.878700000000     0          
T        Si     0.634850000000     0.846650000000     0.574500000000     0          
T        Si     0.596950000000     0.908100000000     0.877100000000     0          
T        Si     0.637800000000     0.788700000000     0.955800000000     0          
T        Si     0.599350000000     0.900650000000     0.000000000000     0          
T        Si     0.537700000000     0.905900000000     0.590600000000     0          
T        Si     0.638950000000     0.905950000000     0.957200000000     0          
T        Si     0.713400000000     0.786600000000     0.000000000000     0          
T        Si     0.654550000000     0.846850000000     0.938500000000     0          
T        Si     0.609750000000     0.904750000000     0.636000000000     0          
T        Si     0.655500000000     0.962500000000     0.938800000000     0          
T        Si     0.617500000000     0.788200000000     0.635600000000     0          
T        Si     0.618400000000     0.788750000000     0.512700000000     0          
T        Si     0.597050000000     0.787650000000     0.996900000000     0          
T        Si     0.658450000000     0.810550000000     0.981700000000     0          
T        Si     0.661550000000     0.888700000000     0.982800000000     0          
T        Si     0.538150000000     0.961050000000     0.940900000000     0          
T        Si     0.560800000000     0.905650000000     0.959100000000     0          
T        Si     0.591400000000     0.808000000000     0.611100000000     0          
T        Si     0.711700000000     0.788500000000     0.875700000000     0          
T        Si     0.537650000000     0.938000000000     0.547400000000     0          
T        Si     0.638300000000     0.845050000000     0.695300000000     0          
T        Si     0.608050000000     0.906500000000     0.513200000000     0          
T        Si     0.538300000000     0.861600000000     0.547600000000     0          
T        Si     0.538350000000     0.882900000000     0.984100000000     0          
T        Si     0.561450000000     0.788050000000     0.955300000000     0          
T        Si     0.594700000000     0.945800000000     0.922400000000     0          
T        Si     0.657200000000     0.858650000000     0.547700000000     0          
T        Si     0.539250000000     0.961350000000     0.820100000000     0          
T        Si     0.537950000000     0.807000000000     0.981100000000     0          
T        Si     0.684850000000     0.840350000000     0.895100000000     0          
T        Si     0.688700000000     0.962100000000     0.896600000000     0          
T        Si     0.711350000000     0.860100000000     0.920100000000     0          
T        Si     0.538550000000     0.849200000000     0.940400000000     0          
T        Si     0.595200000000     0.866750000000     0.921800000000     0          
T        Si     0.592250000000     0.887350000000     0.609800000000     0          
T        Si     0.557700000000     0.787800000000     0.834000000000     0          
T        Si     0.559850000000     0.900650000000     0.835200000000     0          
T        Si     0.711600000000     0.903150000000     0.881000000000     0          
T        Si     0.712150000000     0.936900000000     0.921300000000     0          
T        Si     0.686500000000     0.846850000000     0.772600000000     0          
T        Si     0.651750000000     0.813400000000     0.861600000000     0          
T        Si     0.536900000000     0.885350000000     0.861700000000     0          
T        Si     0.538550000000     0.808150000000     0.861000000000     0          
T        Si     0.590750000000     0.937150000000     0.800600000000     0          
T        Si     0.658800000000     0.892650000000     0.861700000000     0          
T        Si     0.712150000000     0.941750000000     0.802300000000     0          
T        Si     0.711000000000     0.863200000000     0.799200000000     0          
T        Si     0.596000000000     0.857600000000     0.799800000000     0          
T        Si     0.537950000000     0.937300000000     0.669200000000     0          
T        Si     0.538000000000     0.815300000000     0.739000000000     0          
T        Si     0.537500000000     0.844350000000     0.816400000000     0          
T        Si     0.660150000000     0.811250000000     0.738900000000     0          
T        Si     0.538250000000     0.788750000000     0.591600000000     0          
T        Si     0.561400000000     0.962350000000     0.572400000000     0          
O        O      0.853050000000     0.948550000000     0.260400000000     0          
O        O      0.904050000000     0.960900000000     0.274800000000     0          
O        O      0.891300000000     0.500000000000     0.256200000000     0          
O        O      0.914050000000     0.940150000000     0.252200000000     0          
O        O      0.845050000000     0.960150000000     0.317200000000     0          
O        O      0.839850000000     0.938650000000     0.339800000000     0          
O        O      0.858150000000     0.500000000000     0.335500000000     0          
O        O      0.898800000000     0.950850000000     0.330400000000     0          
O        O      0.856700000000     0.876700000000     0.336700000000     0          
O        O      0.840100000000     0.813900000000     0.338700000000     0          
O        O      0.847350000000     0.840450000000     0.317100000000     0          
O        O      0.899950000000     0.830400000000     0.330900000000     0          
O        O      0.957200000000     0.937100000000     0.339700000000     0          
O        O      0.500000000000     0.893000000000     0.347800000000     0          
O        O      0.939600000000     0.895600000000     0.357000000000     0          
O        O      0.948500000000     0.873350000000     0.334900000000     0          
O        O      0.792350000000     0.938800000000     0.252500000000     0          
O        O      0.750000000000     0.898850000000     0.241700000000     0          
O        O      0.812600000000     0.900550000000     0.234500000000     0          
O        O      0.797050000000     0.874150000000     0.255600000000     0          
O        O      0.900900000000     0.877050000000     0.253800000000     0          
O        O      0.877200000000     0.911450000000     0.235400000000     0          
O        O      0.941650000000     0.898900000000     0.236700000000     0          
O        O      0.909400000000     0.812800000000     0.252900000000     0          
O        O      0.850500000000     0.837050000000     0.258500000000     0          
O        O      0.900300000000     0.841850000000     0.274000000000     0          
O        O      0.948550000000     0.750000000000     0.346700000000     0          
O        O      0.940450000000     0.805800000000     0.359200000000     0          
O        O      0.500000000000     0.785800000000     0.353200000000     0          
O        O      0.959500000000     0.808600000000     0.336400000000     0          
O        O      0.750000000000     0.804850000000     0.363900000000     0          
O        O      0.792150000000     0.789900000000     0.381300000000     0          
O        O      0.811550000000     0.789400000000     0.358400000000     0          
O        O      0.798450000000     0.846100000000     0.369200000000     0          
O        O      0.904300000000     0.796800000000     0.378600000000     0          
O        O      0.876750000000     0.793150000000     0.357000000000     0          
O        O      0.896650000000     0.851200000000     0.365400000000     0          
O        O      0.809450000000     0.750000000000     0.399000000000     0          
O        O      0.795300000000     0.813100000000     0.403600000000     0          
O        O      0.850100000000     0.797450000000     0.392000000000     0          
O        O      0.844250000000     0.750000000000     0.343800000000     0          
O        O      0.500000000000     0.812100000000     0.228200000000     0          
O        O      0.962350000000     0.793850000000     0.210000000000     0          
O        O      0.951650000000     0.851050000000     0.221000000000     0          
O        O      0.938000000000     0.794750000000     0.232300000000     0          
O        O      0.949000000000     0.836200000000     0.315200000000     0          
O        O      0.500000000000     0.944650000000     0.302000000000     0          
O        O      0.952200000000     0.959650000000     0.317300000000     0          
O        O      0.938350000000     0.945800000000     0.294300000000     0          
O        O      0.958200000000     0.898350000000     0.309100000000     0          
O        O      0.809250000000     0.944350000000     0.298000000000     0          
O        O      0.850200000000     0.900550000000     0.307700000000     0          
O        O      0.873650000000     0.952250000000     0.295800000000     0          
O        O      0.750000000000     0.949100000000     0.288300000000     0          
O        O      0.789300000000     0.899650000000     0.282100000000     0          
O        O      0.802650000000     0.960450000000     0.274800000000     0          
O        O      0.894600000000     0.750000000000     0.395100000000     0          
O        O      0.907900000000     0.811450000000     0.401800000000     0          
O        O      0.801050000000     0.750000000000     0.244700000000     0          
O        O      0.792350000000     0.808800000000     0.255000000000     0          
O        O      0.809800000000     0.805100000000     0.232000000000     0          
O        O      0.750000000000     0.786950000000     0.238600000000     0          
O        O      0.899150000000     0.901100000000     0.284100000000     0          
O        O      0.911850000000     0.750000000000     0.246700000000     0          
O        O      0.873000000000     0.790550000000     0.234600000000     0          
O        O      0.810850000000     0.899050000000     0.476900000000     0          
O        O      0.852750000000     0.874950000000     0.460700000000     0          
O        O      0.875500000000     0.907900000000     0.479600000000     0          
O        O      0.842700000000     0.939100000000     0.462300000000     0          
O        O      0.895700000000     0.874850000000     0.397900000000     0          
O        O      0.875150000000     0.845900000000     0.418000000000     0          
O        O      0.939050000000     0.857100000000     0.414600000000     0          
O        O      0.811900000000     0.892600000000     0.353200000000     0          
O        O      0.875200000000     0.907950000000     0.356500000000     0          
O        O      0.811550000000     0.861550000000     0.418600000000     0          
O        O      0.797000000000     0.875100000000     0.395800000000     0          
O        O      0.750000000000     0.855900000000     0.410900000000     0          
O        O      0.809150000000     0.856250000000     0.298500000000     0          
O        O      0.804550000000     0.839000000000     0.275600000000     0          
O        O      0.750000000000     0.850100000000     0.288200000000     0          
O        O      0.853050000000     0.750000000000     0.465100000000     0          
O        O      0.811450000000     0.786100000000     0.477700000000     0          
O        O      0.839750000000     0.811400000000     0.458300000000     0          
O        O      0.875450000000     0.800300000000     0.477900000000     0          
O        O      0.940300000000     0.897650000000     0.479300000000     0          
O        O      0.947700000000     0.874150000000     0.457100000000     0          
O        O      0.500000000000     0.892900000000     0.469700000000     0          
O        O      0.958000000000     0.937700000000     0.461500000000     0          
O        O      0.848350000000     0.900950000000     0.214400000000     0          
O        O      0.854950000000     0.852050000000     0.230000000000     0          
O        O      0.500000000000     0.893250000000     0.226200000000     0          
O        O      0.947950000000     0.912600000000     0.213400000000     0          
O        O      0.809100000000     0.844050000000     0.175300000000     0          
O        O      0.804500000000     0.859250000000     0.152100000000     0          
O        O      0.750000000000     0.851300000000     0.165100000000     0          
O        O      0.788400000000     0.903050000000     0.168900000000     0          
O        O      0.939750000000     0.905500000000     0.113900000000     0          
O        O      0.948550000000     0.848900000000     0.102300000000     0          
O        O      0.500000000000     0.885450000000     0.108500000000     0          
O        O      0.959650000000     0.906200000000     0.091300000000     0          
O        O      0.938500000000     0.858750000000     0.171300000000     0          
O        O      0.500000000000     0.854200000000     0.179000000000     0          
O        O      0.953500000000     0.875950000000     0.193800000000     0          
O        O      0.954650000000     0.812900000000     0.187300000000     0          
O        O      0.938900000000     0.854800000000     0.292700000000     0          
O        O      0.873950000000     0.849600000000     0.295600000000     0          
O        O      0.900400000000     0.794600000000     0.499900000000     0          
O        O      0.900250000000     0.852750000000     0.488800000000     0          
O        O      0.939950000000     0.804800000000     0.481400000000     0          
O        O      0.949500000000     0.837750000000     0.437200000000     0          
O        O      0.897750000000     0.834500000000     0.451600000000     0          
O        O      0.955200000000     0.808900000000     0.458300000000     0          
O        O      0.843300000000     0.872250000000     0.193000000000     0          
O        O      0.874250000000     0.848400000000     0.173800000000     0          
O        O      0.846550000000     0.807450000000     0.189400000000     0          
O        O      0.500000000000     0.854350000000     0.423200000000     0          
O        O      0.958500000000     0.900000000000     0.431200000000     0          
O        O      0.902400000000     0.841300000000     0.152500000000     0          
O        O      0.896000000000     0.901100000000     0.162000000000     0          
O        O      0.812350000000     0.913400000000     0.110200000000     0          
O        O      0.835750000000     0.854950000000     0.104800000000     0          
O        O      0.855100000000     0.907400000000     0.092200000000     0          
O        O      0.874600000000     0.900050000000     0.115000000000     0          
O        O      0.500000000000     0.789150000000     0.474200000000     0          
O        O      0.949850000000     0.750000000000     0.468800000000     0          
O        O      0.500000000000     0.852500000000     0.301400000000     0          
O        O      0.750000000000     0.806050000000     0.481700000000     0          
O        O      0.800250000000     0.843400000000     0.488600000000     0          
O        O      0.787450000000     0.787450000000     0.500000000000     0          
O        O      0.844000000000     0.957700000000     0.439400000000     0          
O        O      0.856500000000     0.903850000000     0.426600000000     0          
O        O      0.810550000000     0.945950000000     0.419300000000     0          
O        O      0.873700000000     0.962450000000     0.418100000000     0          
O        O      0.798650000000     0.875150000000     0.129000000000     0          
O        O      0.785750000000     0.939450000000     0.129900000000     0          
O        O      0.750000000000     0.900500000000     0.116100000000     0          
O        O      0.843850000000     0.849350000000     0.438900000000     0          
O        O      0.907500000000     0.936000000000     0.131200000000     0          
O        O      0.912000000000     0.870950000000     0.131500000000     0          
O        O      0.811050000000     0.846800000000     0.054900000000     0          
O        O      0.795650000000     0.841600000000     0.031900000000     0          
O        O      0.750000000000     0.859550000000     0.047800000000     0          
O        O      0.798750000000     0.900600000000     0.042200000000     0          
O        O      0.937800000000     0.896450000000     0.994700000000     0          
O        O      0.873800000000     0.894800000000     0.989400000000     0          
O        O      0.898900000000     0.940400000000     0.397500000000     0          
O        O      0.937250000000     0.947050000000     0.416600000000     0          
O        O      0.914250000000     0.500000000000     0.405500000000     0          
O        O      0.941100000000     0.855000000000     0.049400000000     0          
O        O      0.902000000000     0.899650000000     0.039100000000     0          
O        O      0.904900000000     0.839000000000     0.030500000000     0          
O        O      0.875950000000     0.850600000000     0.051600000000     0          
O        O      0.790150000000     0.750000000000     0.005900000000     0          
O        O      0.790800000000     0.814450000000     0.010400000000     0          
O        O      0.851150000000     0.809600000000     0.067800000000     0          
O        O      0.848300000000     0.873950000000     0.071800000000     0          
O        O      0.906700000000     0.906400000000     0.377400000000     0          
O        O      0.964100000000     0.875550000000     0.070400000000     0          
O        O      0.945600000000     0.813050000000     0.067800000000     0          
O        O      0.500000000000     0.835250000000     0.057200000000     0          
O        O      0.792450000000     0.908650000000     0.375400000000     0          
O        O      0.750000000000     0.882100000000     0.360000000000     0          
O        O      0.750000000000     0.883300000000     0.483700000000     0          
O        O      0.808800000000     0.905000000000     0.990700000000     0          
O        O      0.805750000000     0.877650000000     0.012300000000     0          
O        O      0.786700000000     0.939000000000     0.009500000000     0          
O        O      0.750000000000     0.891250000000     0.000400000000     0          
O        O      0.849400000000     0.831800000000     0.018600000000     0          
O        O      0.953700000000     0.940350000000     0.071100000000     0          
O        O      0.950450000000     0.500000000000     0.061400000000     0          
O        O      0.940050000000     0.947050000000     0.047900000000     0          
O        O      0.500000000000     0.960100000000     0.055800000000     0          
O        O      0.905900000000     0.957050000000     0.027800000000     0          
O        O      0.874850000000     0.953150000000     0.048800000000     0          
O        O      0.794850000000     0.940800000000     0.396200000000     0          
O        O      0.847900000000     0.909850000000     0.387800000000     0          
O        O      0.794800000000     0.750000000000     0.128000000000     0          
O        O      0.811650000000     0.797900000000     0.112900000000     0          
O        O      0.797550000000     0.812300000000     0.135500000000     0          
O        O      0.750000000000     0.793250000000     0.120700000000     0          
O        O      0.939150000000     0.500000000000     0.457600000000     0          
O        O      0.954350000000     0.961500000000     0.439200000000     0          
O        O      0.899900000000     0.950150000000     0.451600000000     0          
O        O      0.909300000000     0.909300000000     0.500000000000     0          
O        O      0.859950000000     0.500000000000     0.456600000000     0          
O        O      0.883600000000     0.500000000000     0.011700000000     0          
O        O      0.845400000000     0.950800000000     0.019300000000     0          
O        O      0.750000000000     0.939550000000     0.049300000000     0          
O        O      0.811850000000     0.954350000000     0.055000000000     0          
O        O      0.791150000000     0.959450000000     0.032300000000     0          
O        O      0.906300000000     0.898800000000     0.077700000000     0          
O        O      0.950500000000     0.941150000000     0.192000000000     0          
O        O      0.500000000000     0.953850000000     0.177000000000     0          
O        O      0.938400000000     0.947850000000     0.168800000000     0          
O        O      0.955400000000     0.500000000000     0.181800000000     0          
O        O      0.804900000000     0.500000000000     0.014300000000     0          
O        O      0.838000000000     0.801700000000     0.091100000000     0          
O        O      0.876400000000     0.806350000000     0.110300000000     0          
O        O      0.500000000000     0.811800000000     0.108100000000     0          
O        O      0.939350000000     0.790700000000     0.112800000000     0          
O        O      0.960950000000     0.794300000000     0.090100000000     0          
O        O      0.852050000000     0.750000000000     0.077400000000     0          
O        O      0.898950000000     0.793350000000     0.083000000000     0          
O        O      0.852700000000     0.500000000000     0.063300000000     0          
O        O      0.857400000000     0.938650000000     0.071200000000     0          
O        O      0.750000000000     0.955500000000     0.166600000000     0          
O        O      0.810500000000     0.961600000000     0.175800000000     0          
O        O      0.802750000000     0.948550000000     0.152600000000     0          
O        O      0.891850000000     0.960800000000     0.152700000000     0          
O        O      0.875500000000     0.951200000000     0.175400000000     0          
O        O      0.892850000000     0.750000000000     0.120800000000     0          
O        O      0.903450000000     0.806550000000     0.132100000000     0          
O        O      0.941400000000     0.750000000000     0.074100000000     0          
O        O      0.849100000000     0.805900000000     0.213100000000     0          
O        O      0.853150000000     0.846400000000     0.136800000000     0          
O        O      0.895200000000     0.500000000000     0.133800000000     0          
O        O      0.846650000000     0.956800000000     0.135300000000     0          
O        O      0.797650000000     0.500000000000     0.137900000000     0          
O        O      0.897300000000     0.906500000000     0.198500000000     0          
O        O      0.946900000000     0.750000000000     0.193300000000     0          
O        O      0.902850000000     0.794250000000     0.200300000000     0          
O        O      0.854200000000     0.750000000000     0.200600000000     0          
O        O      0.840850000000     0.937450000000     0.194900000000     0          
O        O      0.940100000000     0.500000000000     0.335400000000     0          
O        O      0.814000000000     0.500000000000     0.256300000000     0          
O        O      0.850250000000     0.500000000000     0.188400000000     0          
O        O      0.750000000000     0.960050000000     0.412100000000     0          
O        O      0.799300000000     0.500000000000     0.406400000000     0          
O        O      0.500000000000     0.945400000000     0.423200000000     0          
T        Si     0.890700000000     0.962150000000     0.261000000000     0          
T        Si     0.860400000000     0.962250000000     0.330600000000     0          
T        Si     0.861150000000     0.840300000000     0.330800000000     0          
T        Si     0.961350000000     0.899800000000     0.344800000000     0          
T        Si     0.788100000000     0.903050000000     0.246000000000     0          
T        Si     0.908500000000     0.906700000000     0.244400000000     0          
T        Si     0.890000000000     0.842250000000     0.259800000000     0          
T        Si     0.961800000000     0.787400000000     0.348800000000     0          
T        Si     0.788150000000     0.807500000000     0.368300000000     0          
T        Si     0.904350000000     0.811950000000     0.365100000000     0          
T        Si     0.811700000000     0.787650000000     0.394100000000     0          
T        Si     0.843150000000     0.787000000000     0.349400000000     0          
T        Si     0.962700000000     0.812900000000     0.222900000000     0          
T        Si     0.939150000000     0.837400000000     0.329400000000     0          
T        Si     0.962000000000     0.937150000000     0.305700000000     0          
T        Si     0.844550000000     0.939300000000     0.304700000000     0          
T        Si     0.788000000000     0.938400000000     0.285800000000     0          
T        Si     0.889150000000     0.788700000000     0.391800000000     0          
T        Si     0.788450000000     0.787650000000     0.242700000000     0          
T        Si     0.903800000000     0.939950000000     0.287200000000     0          
T        Si     0.908050000000     0.787400000000     0.241600000000     0          
T        Si     0.845550000000     0.905050000000     0.470000000000     0          
T        Si     0.904500000000     0.847500000000     0.408100000000     0          
T        Si     0.845850000000     0.903800000000     0.346700000000     0          
T        Si     0.788550000000     0.851400000000     0.407200000000     0          
T        Si     0.788100000000     0.861150000000     0.286200000000     0          
T        Si     0.845000000000     0.787150000000     0.469700000000     0          
T        Si     0.961400000000     0.900550000000     0.466900000000     0          
T        Si     0.848100000000     0.891350000000     0.228600000000     0          
T        Si     0.960550000000     0.889050000000     0.224300000000     0          
T        Si     0.787950000000     0.864250000000     0.165300000000     0          
T        Si     0.961950000000     0.886400000000     0.104000000000     0          
T        Si     0.961550000000     0.850500000000     0.182900000000     0          
T        Si     0.903150000000     0.861850000000     0.286600000000     0          
T        Si     0.903900000000     0.813200000000     0.487000000000     0          
T        Si     0.937550000000     0.839000000000     0.451100000000     0          
T        Si     0.843300000000     0.843250000000     0.182900000000     0          
T        Si     0.961750000000     0.862250000000     0.426500000000     0          
T        Si     0.902700000000     0.862400000000     0.164900000000     0          
T        Si     0.844850000000     0.893900000000     0.105400000000     0          
T        Si     0.961200000000     0.788100000000     0.470600000000     0          
T        Si     0.961700000000     0.860450000000     0.304500000000     0          
T        Si     0.787400000000     0.805700000000     0.487000000000     0          
T        Si     0.846150000000     0.942500000000     0.425800000000     0          
T        Si     0.786950000000     0.907050000000     0.121300000000     0          
T        Si     0.846650000000     0.865150000000     0.425500000000     0          
T        Si     0.908100000000     0.903050000000     0.122900000000     0          
T        Si     0.788700000000     0.862200000000     0.044200000000     0          
T        Si     0.900650000000     0.900650000000     0.000000000000     0          
T        Si     0.905900000000     0.962300000000     0.409400000000     0          
T        Si     0.905950000000     0.861050000000     0.042800000000     0          
T        Si     0.786600000000     0.786600000000     0.000000000000     0          
T        Si     0.846850000000     0.845450000000     0.061500000000     0          
T        Si     0.904750000000     0.890250000000     0.364000000000     0          
T        Si     0.962500000000     0.844500000000     0.061200000000     0          
T        Si     0.788200000000     0.882500000000     0.364400000000     0          
T        Si     0.788750000000     0.881600000000     0.487300000000     0          
T        Si     0.787650000000     0.902950000000     0.003100000000     0          
T        Si     0.810550000000     0.841550000000     0.018300000000     0          
T        Si     0.888700000000     0.838450000000     0.017200000000     0          
T        Si     0.961050000000     0.961850000000     0.059100000000     0          
T        Si     0.905650000000     0.939200000000     0.040900000000     0          
T        Si     0.808000000000     0.908600000000     0.388900000000     0          
T        Si     0.788500000000     0.788300000000     0.124300000000     0          
T        Si     0.938000000000     0.962350000000     0.452600000000     0          
T        Si     0.845050000000     0.861700000000     0.304700000000     0          
T        Si     0.906500000000     0.891950000000     0.486800000000     0          
T        Si     0.861600000000     0.961700000000     0.452400000000     0          
T        Si     0.882900000000     0.961650000000     0.015900000000     0          
T        Si     0.788050000000     0.938550000000     0.044700000000     0          
T        Si     0.945800000000     0.905300000000     0.077600000000     0          
T        Si     0.858650000000     0.842800000000     0.452300000000     0          
T        Si     0.961350000000     0.960750000000     0.179900000000     0          
T        Si     0.807000000000     0.962050000000     0.018900000000     0          
T        Si     0.840350000000     0.815150000000     0.104900000000     0          
T        Si     0.962100000000     0.811300000000     0.103400000000     0          
T        Si     0.860100000000     0.788650000000     0.079900000000     0          
T        Si     0.849200000000     0.961450000000     0.059600000000     0          
T        Si     0.866750000000     0.904800000000     0.078200000000     0          
T        Si     0.887350000000     0.907750000000     0.390200000000     0          
T        Si     0.787800000000     0.942300000000     0.166000000000     0          
T        Si     0.900650000000     0.940150000000     0.164800000000     0          
T        Si     0.903150000000     0.788400000000     0.119000000000     0          
T        Si     0.936900000000     0.787850000000     0.078700000000     0          
T        Si     0.846850000000     0.813500000000     0.227400000000     0          
T        Si     0.813400000000     0.848250000000     0.138400000000     0          
T        Si     0.885350000000     0.963100000000     0.138300000000     0          
T        Si     0.808150000000     0.961450000000     0.139000000000     0          
T        Si     0.937150000000     0.909250000000     0.199400000000     0          
T        Si     0.892650000000     0.841200000000     0.138300000000     0          
T        Si     0.941750000000     0.787850000000     0.197700000000     0          
T        Si     0.863200000000     0.789000000000     0.200800000000     0          
T        Si     0.857600000000     0.904000000000     0.200200000000     0          
T        Si     0.937300000000     0.962050000000     0.330800000000     0          
T        Si     0.815300000000     0.962000000000     0.261000000000     0          
T        Si     0.844350000000     0.962500000000     0.183600000000     0          
T        Si     0.811250000000     0.839850000000     0.261100000000     0          
T        Si     0.788750000000     0.961750000000     0.408400000000     0          
T        Si     0.962350000000     0.938600000000     0.427600000000     0          
O        O      0.948550000000     0.646950000000     0.739600000000     0          
O        O      0.960900000000     0.595950000000     0.725200000000     0          
O        O      0.500000000000     0.608700000000     0.743800000000     0          
O        O      0.940150000000     0.585950000000     0.747800000000     0          
O        O      0.960150000000     0.654950000000     0.682800000000     0          
O        O      0.938650000000     0.660150000000     0.660200000000     0          
O        O      0.500000000000     0.641850000000     0.664500000000     0          
O        O      0.950850000000     0.601200000000     0.669600000000     0          
O        O      0.876700000000     0.643300000000     0.663300000000     0          
O        O      0.813900000000     0.659900000000     0.661300000000     0          
O        O      0.840450000000     0.652650000000     0.682900000000     0          
O        O      0.830400000000     0.600050000000     0.669100000000     0          
O        O      0.937100000000     0.542800000000     0.660300000000     0          
O        O      0.893000000000     0.500000000000     0.652200000000     0          
O        O      0.895600000000     0.560400000000     0.643000000000     0          
O        O      0.873350000000     0.551500000000     0.665100000000     0          
O        O      0.938800000000     0.707650000000     0.747500000000     0          
O        O      0.898850000000     0.750000000000     0.758300000000     0          
O        O      0.900550000000     0.687400000000     0.765500000000     0          
O        O      0.874150000000     0.702950000000     0.744400000000     0          
O        O      0.877050000000     0.599100000000     0.746200000000     0          
O        O      0.911450000000     0.622800000000     0.764600000000     0          
O        O      0.898900000000     0.558350000000     0.763300000000     0          
O        O      0.812800000000     0.590600000000     0.747100000000     0          
O        O      0.837050000000     0.649500000000     0.741500000000     0          
O        O      0.841850000000     0.599700000000     0.726000000000     0          
O        O      0.750000000000     0.551450000000     0.653300000000     0          
O        O      0.805800000000     0.559550000000     0.640800000000     0          
O        O      0.785800000000     0.500000000000     0.646800000000     0          
O        O      0.808600000000     0.540500000000     0.663600000000     0          
O        O      0.804850000000     0.750000000000     0.636100000000     0          
O        O      0.789900000000     0.707850000000     0.618700000000     0          
O        O      0.789400000000     0.688450000000     0.641600000000     0          
O        O      0.846100000000     0.701550000000     0.630800000000     0          
O        O      0.796800000000     0.595700000000     0.621400000000     0          
O        O      0.793150000000     0.623250000000     0.643000000000     0          
O        O      0.851200000000     0.603350000000     0.634600000000     0          
O        O      0.750000000000     0.690550000000     0.601000000000     0          
O        O      0.813100000000     0.704700000000     0.596400000000     0          
O        O      0.797450000000     0.649900000000     0.608000000000     0          
O        O      0.750000000000     0.655750000000     0.656200000000     0          
O        O      0.812100000000     0.500000000000     0.771800000000     0          
O        O      0.793850000000     0.537650000000     0.790000000000     0          
O        O      0.851050000000     0.548350000000     0.779000000000     0          
O        O      0.794750000000     0.562000000000     0.767700000000     0          
O        O      0.836200000000     0.551000000000     0.684800000000     0          
O        O      0.944650000000     0.500000000000     0.698000000000     0          
O        O      0.959650000000     0.547800000000     0.682700000000     0          
O        O      0.945800000000     0.561650000000     0.705700000000     0          
O        O      0.898350000000     0.541800000000     0.690900000000     0          
O        O      0.944350000000     0.690750000000     0.702000000000     0          
O        O      0.900550000000     0.649800000000     0.692300000000     0          
O        O      0.952250000000     0.626350000000     0.704200000000     0          
O        O      0.949100000000     0.750000000000     0.711700000000     0          
O        O      0.899650000000     0.710700000000     0.717900000000     0          
O        O      0.960450000000     0.697350000000     0.725200000000     0          
O        O      0.750000000000     0.605400000000     0.604900000000     0          
O        O      0.811450000000     0.592100000000     0.598200000000     0          
O        O      0.750000000000     0.698950000000     0.755300000000     0          
O        O      0.808800000000     0.707650000000     0.745000000000     0          
O        O      0.805100000000     0.690200000000     0.768000000000     0          
O        O      0.786950000000     0.750000000000     0.761400000000     0          
O        O      0.901100000000     0.600850000000     0.715900000000     0          
O        O      0.750000000000     0.588150000000     0.753300000000     0          
O        O      0.790550000000     0.627000000000     0.765400000000     0          
O        O      0.899050000000     0.689150000000     0.523100000000     0          
O        O      0.874950000000     0.647250000000     0.539300000000     0          
O        O      0.907900000000     0.624500000000     0.520400000000     0          
O        O      0.939100000000     0.657300000000     0.537700000000     0          
O        O      0.874850000000     0.604300000000     0.602100000000     0          
O        O      0.845900000000     0.624850000000     0.582000000000     0          
O        O      0.857100000000     0.560950000000     0.585400000000     0          
O        O      0.892600000000     0.688100000000     0.646800000000     0          
O        O      0.907950000000     0.624800000000     0.643500000000     0          
O        O      0.861550000000     0.688450000000     0.581400000000     0          
O        O      0.875100000000     0.703000000000     0.604200000000     0          
O        O      0.855900000000     0.750000000000     0.589100000000     0          
O        O      0.856250000000     0.690850000000     0.701500000000     0          
O        O      0.839000000000     0.695450000000     0.724400000000     0          
O        O      0.850100000000     0.750000000000     0.711800000000     0          
O        O      0.750000000000     0.646950000000     0.534900000000     0          
O        O      0.786100000000     0.688550000000     0.522300000000     0          
O        O      0.811400000000     0.660250000000     0.541700000000     0          
O        O      0.800300000000     0.624550000000     0.522100000000     0          
O        O      0.897650000000     0.559700000000     0.520700000000     0          
O        O      0.874150000000     0.552300000000     0.542900000000     0          
O        O      0.892900000000     0.500000000000     0.530300000000     0          
O        O      0.937700000000     0.542000000000     0.538500000000     0          
O        O      0.900950000000     0.651650000000     0.785600000000     0          
O        O      0.852050000000     0.645050000000     0.770000000000     0          
O        O      0.893250000000     0.500000000000     0.773800000000     0          
O        O      0.912600000000     0.552050000000     0.786600000000     0          
O        O      0.844050000000     0.690900000000     0.824700000000     0          
O        O      0.859250000000     0.695500000000     0.847900000000     0          
O        O      0.851300000000     0.750000000000     0.834900000000     0          
O        O      0.903050000000     0.711600000000     0.831100000000     0          
O        O      0.905500000000     0.560250000000     0.886100000000     0          
O        O      0.848900000000     0.551450000000     0.897700000000     0          
O        O      0.885450000000     0.500000000000     0.891500000000     0          
O        O      0.906200000000     0.540350000000     0.908700000000     0          
O        O      0.858750000000     0.561500000000     0.828700000000     0          
O        O      0.854200000000     0.500000000000     0.821000000000     0          
O        O      0.875950000000     0.546500000000     0.806200000000     0          
O        O      0.812900000000     0.545350000000     0.812700000000     0          
O        O      0.854800000000     0.561100000000     0.707300000000     0          
O        O      0.849600000000     0.626050000000     0.704400000000     0          
O        O      0.794600000000     0.599600000000     0.500100000000     0          
O        O      0.852750000000     0.599750000000     0.511200000000     0          
O        O      0.804800000000     0.560050000000     0.518600000000     0          
O        O      0.837750000000     0.550500000000     0.562800000000     0          
O        O      0.834500000000     0.602250000000     0.548400000000     0          
O        O      0.808900000000     0.544800000000     0.541700000000     0          
O        O      0.872250000000     0.656700000000     0.807000000000     0          
O        O      0.848400000000     0.625750000000     0.826200000000     0          
O        O      0.807450000000     0.653450000000     0.810600000000     0          
O        O      0.854350000000     0.500000000000     0.576800000000     0          
O        O      0.900000000000     0.541500000000     0.568800000000     0          
O        O      0.841300000000     0.597600000000     0.847500000000     0          
O        O      0.901100000000     0.604000000000     0.838000000000     0          
O        O      0.913400000000     0.687650000000     0.889800000000     0          
O        O      0.854950000000     0.664250000000     0.895200000000     0          
O        O      0.907400000000     0.644900000000     0.907800000000     0          
O        O      0.900050000000     0.625400000000     0.885000000000     0          
O        O      0.789150000000     0.500000000000     0.525800000000     0          
O        O      0.750000000000     0.550150000000     0.531200000000     0          
O        O      0.852500000000     0.500000000000     0.698600000000     0          
O        O      0.806050000000     0.750000000000     0.518300000000     0          
O        O      0.843400000000     0.699750000000     0.511400000000     0          
O        O      0.787450000000     0.712550000000     0.500000000000     0          
O        O      0.957700000000     0.656000000000     0.560600000000     0          
O        O      0.903850000000     0.643500000000     0.573400000000     0          
O        O      0.945950000000     0.689450000000     0.580700000000     0          
O        O      0.962450000000     0.626300000000     0.581900000000     0          
O        O      0.875150000000     0.701350000000     0.871000000000     0          
O        O      0.939450000000     0.714250000000     0.870100000000     0          
O        O      0.900500000000     0.750000000000     0.883900000000     0          
O        O      0.849350000000     0.656150000000     0.561100000000     0          
O        O      0.936000000000     0.592500000000     0.868800000000     0          
O        O      0.870950000000     0.588000000000     0.868500000000     0          
O        O      0.846800000000     0.688950000000     0.945100000000     0          
O        O      0.841600000000     0.704350000000     0.968100000000     0          
O        O      0.859550000000     0.750000000000     0.952200000000     0          
O        O      0.900600000000     0.701250000000     0.957800000000     0          
O        O      0.896450000000     0.562200000000     0.005300000000     0          
O        O      0.894800000000     0.626200000000     0.010600000000     0          
O        O      0.940400000000     0.601100000000     0.602500000000     0          
O        O      0.947050000000     0.562750000000     0.583400000000     0          
O        O      0.500000000000     0.585750000000     0.594500000000     0          
O        O      0.855000000000     0.558900000000     0.950600000000     0          
O        O      0.899650000000     0.598000000000     0.960900000000     0          
O        O      0.839000000000     0.595100000000     0.969500000000     0          
O        O      0.850600000000     0.624050000000     0.948400000000     0          
O        O      0.750000000000     0.709850000000     0.994100000000     0          
O        O      0.814450000000     0.709200000000     0.989600000000     0          
O        O      0.809600000000     0.648850000000     0.932200000000     0          
O        O      0.873950000000     0.651700000000     0.928200000000     0          
O        O      0.906400000000     0.593300000000     0.622600000000     0          
O        O      0.875550000000     0.535900000000     0.929600000000     0          
O        O      0.813050000000     0.554400000000     0.932200000000     0          
O        O      0.835250000000     0.500000000000     0.942800000000     0          
O        O      0.908650000000     0.707550000000     0.624600000000     0          
O        O      0.882100000000     0.750000000000     0.640000000000     0          
O        O      0.883300000000     0.750000000000     0.516300000000     0          
O        O      0.905000000000     0.691200000000     0.009300000000     0          
O        O      0.877650000000     0.694250000000     0.987700000000     0          
O        O      0.939000000000     0.713300000000     0.990500000000     0          
O        O      0.891250000000     0.750000000000     0.999600000000     0          
O        O      0.831800000000     0.650600000000     0.981400000000     0          
O        O      0.940350000000     0.546300000000     0.928900000000     0          
O        O      0.500000000000     0.549550000000     0.938600000000     0          
O        O      0.947050000000     0.559950000000     0.952100000000     0          
O        O      0.960100000000     0.500000000000     0.944200000000     0          
O        O      0.957050000000     0.594100000000     0.972200000000     0          
O        O      0.953150000000     0.625150000000     0.951200000000     0          
O        O      0.940800000000     0.705150000000     0.603800000000     0          
O        O      0.909850000000     0.652100000000     0.612200000000     0          
O        O      0.750000000000     0.705200000000     0.872000000000     0          
O        O      0.797900000000     0.688350000000     0.887100000000     0          
O        O      0.812300000000     0.702450000000     0.864500000000     0          
O        O      0.793250000000     0.750000000000     0.879300000000     0          
O        O      0.500000000000     0.560850000000     0.542400000000     0          
O        O      0.961500000000     0.545650000000     0.560800000000     0          
O        O      0.950150000000     0.600100000000     0.548400000000     0          
O        O      0.909300000000     0.590700000000     0.500000000000     0          
O        O      0.500000000000     0.640050000000     0.543400000000     0          
O        O      0.500000000000     0.616400000000     0.988300000000     0          
O        O      0.950800000000     0.654600000000     0.980700000000     0          
O        O      0.939550000000     0.750000000000     0.950700000000     0          
O        O      0.954350000000     0.688150000000     0.945000000000     0          
O        O      0.959450000000     0.708850000000     0.967700000000     0          
O        O      0.898800000000     0.593700000000     0.922300000000     0          
O        O      0.941150000000     0.549500000000     0.808000000000     0          
O        O      0.953850000000     0.500000000000     0.823000000000     0          
O        O      0.947850000000     0.561600000000     0.831200000000     0          
O        O      0.500000000000     0.544600000000     0.818200000000     0          
O        O      0.500000000000     0.695100000000     0.985700000000     0          
O        O      0.801700000000     0.662000000000     0.908900000000     0          
O        O      0.806350000000     0.623600000000     0.889700000000     0          
O        O      0.811800000000     0.500000000000     0.891900000000     0          
O        O      0.790700000000     0.560650000000     0.887200000000     0          
O        O      0.794300000000     0.539050000000     0.909900000000     0          
O        O      0.750000000000     0.647950000000     0.922600000000     0          
O        O      0.793350000000     0.601050000000     0.917000000000     0          
O        O      0.500000000000     0.647300000000     0.936700000000     0          
O        O      0.938650000000     0.642600000000     0.928800000000     0          
O        O      0.955500000000     0.750000000000     0.833400000000     0          
O        O      0.961600000000     0.689500000000     0.824200000000     0          
O        O      0.948550000000     0.697250000000     0.847400000000     0          
O        O      0.960800000000     0.608150000000     0.847300000000     0          
O        O      0.951200000000     0.624500000000     0.824600000000     0          
O        O      0.750000000000     0.607150000000     0.879200000000     0          
O        O      0.806550000000     0.596550000000     0.867900000000     0          
O        O      0.750000000000     0.558600000000     0.925900000000     0          
O        O      0.805900000000     0.650900000000     0.786900000000     0          
O        O      0.846400000000     0.646850000000     0.863200000000     0          
O        O      0.500000000000     0.604800000000     0.866200000000     0          
O        O      0.956800000000     0.653350000000     0.864700000000     0          
O        O      0.500000000000     0.702350000000     0.862100000000     0          
O        O      0.906500000000     0.602700000000     0.801500000000     0          
O        O      0.750000000000     0.553100000000     0.806700000000     0          
O        O      0.794250000000     0.597150000000     0.799700000000     0          
O        O      0.750000000000     0.645800000000     0.799400000000     0          
O        O      0.937450000000     0.659150000000     0.805100000000     0          
O        O      0.500000000000     0.559900000000     0.664600000000     0          
O        O      0.500000000000     0.686000000000     0.743700000000     0          
O        O      0.500000000000     0.649750000000     0.811600000000     0          
O        O      0.960050000000     0.750000000000     0.587900000000     0          
O        O      0.500000000000     0.700700000000     0.593600000000     0          
O        O      0.945400000000     0.500000000000     0.576800000000     0          
T        Si     0.962150000000     0.609300000000     0.739000000000     0          
T        Si     0.962250000000     0.639600000000     0.669400000000     0          
T        Si     0.840300000000     0.638850000000     0.669200000000     0          
T        Si     0.899800000000     0.538650000000     0.655200000000     0          
T        Si     0.903050000000     0.711900000000     0.754000000000     0          
T        Si     0.906700000000     0.591500000000     0.755600000000     0          
T        Si     0.842250000000     0.610000000000     0.740200000000     0          
T        Si     0.787400000000     0.538200000000     0.651200000000     0          
T        Si     0.807500000000     0.711850000000     0.631700000000     0          
T        Si     0.811950000000     0.595650000000     0.634900000000     0          
T        Si     0.787650000000     0.688300000000     0.605900000000     0          
T        Si     0.787000000000     0.656850000000     0.650600000000     0          
T        Si     0.812900000000     0.537300000000     0.777100000000     0          
T        Si     0.837400000000     0.560850000000     0.670600000000     0          
T        Si     0.937150000000     0.538000000000     0.694300000000     0          
T        Si     0.939300000000     0.655450000000     0.695300000000     0          
T        Si     0.938400000000     0.712000000000     0.714200000000     0          
T        Si     0.788700000000     0.610850000000     0.608200000000     0          
T        Si     0.787650000000     0.711550000000     0.757300000000     0          
T        Si     0.939950000000     0.596200000000     0.712800000000     0          
T        Si     0.787400000000     0.591950000000     0.758400000000     0          
T        Si     0.905050000000     0.654450000000     0.530000000000     0          
T        Si     0.847500000000     0.595500000000     0.591900000000     0          
T        Si     0.903800000000     0.654150000000     0.653300000000     0          
T        Si     0.851400000000     0.711450000000     0.592800000000     0          
T        Si     0.861150000000     0.711900000000     0.713800000000     0          
T        Si     0.787150000000     0.655000000000     0.530300000000     0          
T        Si     0.900550000000     0.538600000000     0.533100000000     0          
T        Si     0.891350000000     0.651900000000     0.771400000000     0          
T        Si     0.889050000000     0.539450000000     0.775700000000     0          
T        Si     0.864250000000     0.712050000000     0.834700000000     0          
T        Si     0.886400000000     0.538050000000     0.896000000000     0          
T        Si     0.850500000000     0.538450000000     0.817100000000     0          
T        Si     0.861850000000     0.596850000000     0.713400000000     0          
T        Si     0.813200000000     0.596100000000     0.513000000000     0          
T        Si     0.839000000000     0.562450000000     0.548900000000     0          
T        Si     0.843250000000     0.656700000000     0.817100000000     0          
T        Si     0.862250000000     0.538250000000     0.573500000000     0          
T        Si     0.862400000000     0.597300000000     0.835100000000     0          
T        Si     0.893900000000     0.655150000000     0.894600000000     0          
T        Si     0.788100000000     0.538800000000     0.529400000000     0          
T        Si     0.860450000000     0.538300000000     0.695500000000     0          
T        Si     0.805700000000     0.712600000000     0.513000000000     0          
T        Si     0.942500000000     0.653850000000     0.574200000000     0          
T        Si     0.907050000000     0.713050000000     0.878700000000     0          
T        Si     0.865150000000     0.653350000000     0.574500000000     0          
T        Si     0.903050000000     0.591900000000     0.877100000000     0          
T        Si     0.862200000000     0.711300000000     0.955800000000     0          
T        Si     0.900650000000     0.599350000000     0.000000000000     0          
T        Si     0.962300000000     0.594100000000     0.590600000000     0          
T        Si     0.861050000000     0.594050000000     0.957200000000     0          
T        Si     0.786600000000     0.713400000000     0.000000000000     0          
T        Si     0.845450000000     0.653150000000     0.938500000000     0          
T        Si     0.890250000000     0.595250000000     0.636000000000     0          
T        Si     0.844500000000     0.537500000000     0.938800000000     0          
T        Si     0.882500000000     0.711800000000     0.635600000000     0          
T        Si     0.881600000000     0.711250000000     0.512700000000     0          
T        Si     0.902950000000     0.712350000000     0.996900000000     0          
T        Si     0.841550000000     0.689450000000     0.981700000000     0          
T        Si     0.838450000000     0.611300000000     0.982800000000     0          
T        Si     0.961850000000     0.538950000000     0.940900000000     0          
T        Si     0.939200000000     0.594350000000     0.959100000000     0          
T        Si     0.908600000000     0.692000000000     0.611100000000     0          
T        Si     0.788300000000     0.711500000000     0.875700000000     0          
T        Si     0.962350000000     0.562000000000     0.547400000000     0          
T        Si     0.861700000000     0.654950000000     0.695300000000     0          
T        Si     0.891950000000     0.593500000000     0.513200000000     0          
T        Si     0.961700000000     0.638400000000     0.547600000000     0          
T        Si     0.961650000000     0.617100000000     0.984100000000     0          
T        Si     0.938550000000     0.711950000000     0.955300000000     0          
T        Si     0.905300000000     0.554200000000     0.922400000000     0          
T        Si     0.842800000000     0.641350000000     0.547700000000     0          
T        Si     0.960750000000     0.538650000000     0.820100000000     0          
T        Si     0.962050000000     0.693000000000     0.981100000000     0          
T        Si     0.815150000000     0.659650000000     0.895100000000     0          
T        Si     0.811300000000     0.537900000000     0.896600000000     0          
T        Si     0.788650000000     0.639900000000     0.920100000000     0          
T        Si     0.961450000000     0.650800000000     0.940400000000     0          
T        Si     0.904800000000     0.633250000000     0.921800000000     0          
T        Si     0.907750000000     0.612650000000     0.609800000000     0          
T        Si     0.942300000000     0.712200000000     0.834000000000     0          
T        Si     0.940150000000     0.599350000000     0.835200000000     0          
T        Si     0.788400000000     0.596850000000     0.881000000000     0          
T        Si     0.787850000000     0.563100000000     0.921300000000     0          
T        Si     0.813500000000     0.653150000000     0.772600000000     0          
T        Si     0.848250000000     0.686600000000     0.861600000000     0          
T        Si     0.963100000000     0.614650000000     0.861700000000     0          
T        Si     0.961450000000     0.691850000000     0.861000000000     0          
T        Si     0.909250000000     0.562850000000     0.800600000000     0          
T        Si     0.841200000000     0.607350000000     0.861700000000     0          
T        Si     0.787850000000     0.558250000000     0.802300000000     0          
T        Si     0.789000000000     0.636800000000     0.799200000000     0          
T        Si     0.904000000000     0.642400000000     0.799800000000     0          
T        Si     0.962050000000     0.562700000000     0.669200000000     0          
T        Si     0.962000000000     0.684700000000     0.739000000000     0          
T        Si     0.962500000000     0.655650000000     0.816400000000     0          
T        Si     0.839850000000     0.688750000000     0.738900000000     0          
T        Si     0.961750000000     0.711250000000     0.591600000000     0          
T        Si     0.938600000000     0.537650000000     0.572400000000     0          
O        O      0.853050000000     0.551450000000     0.260400000000     0          
O        O      0.904050000000     0.539100000000     0.274800000000     0          
O        O      0.914050000000     0.559850000000     0.252200000000     0          
O        O      0.845050000000     0.539850000000     0.317200000000     0          
O        O      0.839850000000     0.561350000000     0.339800000000     0          
O        O      0.898800000000     0.549150000000     0.330400000000     0          
O        O      0.856700000000     0.623300000000     0.336700000000     0          
O        O      0.840100000000     0.686100000000     0.338700000000     0          
O        O      0.847350000000     0.659550000000     0.317100000000     0          
O        O      0.899950000000     0.669600000000     0.330900000000     0          
O        O      0.957200000000     0.562900000000     0.339700000000     0          
O        O      0.939600000000     0.604400000000     0.357000000000     0          
O        O      0.948500000000     0.626650000000     0.334900000000     0          
O        O      0.792350000000     0.561200000000     0.252500000000     0          
O        O      0.812600000000     0.599450000000     0.234500000000     0          
O        O      0.797050000000     0.625850000000     0.255600000000     0          
O        O      0.900900000000     0.622950000000     0.253800000000     0          
O        O      0.877200000000     0.588550000000     0.235400000000     0          
O        O      0.941650000000     0.601100000000     0.236700000000     0          
O        O      0.909400000000     0.687200000000     0.252900000000     0          
O        O      0.850500000000     0.662950000000     0.258500000000     0          
O        O      0.900300000000     0.658150000000     0.274000000000     0          
O        O      0.940450000000     0.694200000000     0.359200000000     0          
O        O      0.959500000000     0.691400000000     0.336400000000     0          
O        O      0.792150000000     0.710100000000     0.381300000000     0          
O        O      0.811550000000     0.710600000000     0.358400000000     0          
O        O      0.798450000000     0.653900000000     0.369200000000     0          
O        O      0.904300000000     0.703200000000     0.378600000000     0          
O        O      0.876750000000     0.706850000000     0.357000000000     0          
O        O      0.896650000000     0.648800000000     0.365400000000     0          
O        O      0.795300000000     0.686900000000     0.403600000000     0          
O        O      0.850100000000     0.702550000000     0.392000000000     0          
O        O      0.962350000000     0.706150000000     0.210000000000     0          
O        O      0.951650000000     0.648950000000     0.221000000000     0          
O        O      0.938000000000     0.705250000000     0.232300000000     0          
O        O      0.949000000000     0.663800000000     0.315200000000     0          
O        O      0.952200000000     0.540350000000     0.317300000000     0          
O        O      0.938350000000     0.554200000000     0.294300000000     0          
O        O      0.958200000000     0.601650000000     0.309100000000     0          
O        O      0.809250000000     0.555650000000     0.298000000000     0          
O        O      0.850200000000     0.599450000000     0.307700000000     0          
O        O      0.873650000000     0.547750000000     0.295800000000     0          
O        O      0.789300000000     0.600350000000     0.282100000000     0          
O        O      0.802650000000     0.539550000000     0.274800000000     0          
O        O      0.907900000000     0.688550000000     0.401800000000     0          
O        O      0.792350000000     0.691200000000     0.255000000000     0          
O        O      0.809800000000     0.694900000000     0.232000000000     0          
O        O      0.899150000000     0.598900000000     0.284100000000     0          
O        O      0.873000000000     0.709450000000     0.234600000000     0          
O        O      0.810850000000     0.600950000000     0.476900000000     0          
O        O      0.852750000000     0.625050000000     0.460700000000     0          
O        O      0.875500000000     0.592100000000     0.479600000000     0          
O        O      0.842700000000     0.560900000000     0.462300000000     0          
O        O      0.895700000000     0.625150000000     0.397900000000     0          
O        O      0.875150000000     0.654100000000     0.418000000000     0          
O        O      0.939050000000     0.642900000000     0.414600000000     0          
O        O      0.811900000000     0.607400000000     0.353200000000     0          
O        O      0.875200000000     0.592050000000     0.356500000000     0          
O        O      0.811550000000     0.638450000000     0.418600000000     0          
O        O      0.797000000000     0.624900000000     0.395800000000     0          
O        O      0.809150000000     0.643750000000     0.298500000000     0          
O        O      0.804550000000     0.661000000000     0.275600000000     0          
O        O      0.811450000000     0.713900000000     0.477700000000     0          
O        O      0.839750000000     0.688600000000     0.458300000000     0          
O        O      0.875450000000     0.699700000000     0.477900000000     0          
O        O      0.940300000000     0.602350000000     0.479300000000     0          
O        O      0.947700000000     0.625850000000     0.457100000000     0          
O        O      0.958000000000     0.562300000000     0.461500000000     0          
O        O      0.848350000000     0.599050000000     0.214400000000     0          
O        O      0.854950000000     0.647950000000     0.230000000000     0          
O        O      0.947950000000     0.587400000000     0.213400000000     0          
O        O      0.809100000000     0.655950000000     0.175300000000     0          
O        O      0.804500000000     0.640750000000     0.152100000000     0          
O        O      0.788400000000     0.596950000000     0.168900000000     0          
O        O      0.939750000000     0.594500000000     0.113900000000     0          
O        O      0.948550000000     0.651100000000     0.102300000000     0          
O        O      0.959650000000     0.593800000000     0.091300000000     0          
O        O      0.938500000000     0.641250000000     0.171300000000     0          
O        O      0.953500000000     0.624050000000     0.193800000000     0          
O        O      0.954650000000     0.687100000000     0.187300000000     0          
O        O      0.938900000000     0.645200000000     0.292700000000     0          
O        O      0.873950000000     0.650400000000     0.295600000000     0          
O        O      0.900400000000     0.705400000000     0.499900000000     0          
O        O      0.900250000000     0.647250000000     0.488800000000     0          
O        O      0.939950000000     0.695200000000     0.481400000000     0          
O        O      0.949500000000     0.662250000000     0.437200000000     0          
O        O      0.897750000000     0.665500000000     0.451600000000     0          
O        O      0.955200000000     0.691100000000     0.458300000000     0          
O        O      0.843300000000     0.627750000000     0.193000000000     0          
O        O      0.874250000000     0.651600000000     0.173800000000     0          
O        O      0.846550000000     0.692550000000     0.189400000000     0          
O        O      0.958500000000     0.600000000000     0.431200000000     0          
O        O      0.902400000000     0.658700000000     0.152500000000     0          
O        O      0.896000000000     0.598900000000     0.162000000000     0          
O        O      0.812350000000     0.586600000000     0.110200000000     0          
O        O      0.835750000000     0.645050000000     0.104800000000     0          
O        O      0.855100000000     0.592600000000     0.092200000000     0          
O        O      0.874600000000     0.599950000000     0.115000000000     0          
O        O      0.800250000000     0.656600000000     0.488600000000     0          
O        O      0.844000000000     0.542300000000     0.439400000000     0          
O        O      0.856500000000     0.596150000000     0.426600000000     0          
O        O      0.810550000000     0.554050000000     0.419300000000     0          
O        O      0.873700000000     0.537550000000     0.418100000000     0          
O        O      0.798650000000     0.624850000000     0.129000000000     0          
O        O      0.785750000000     0.560550000000     0.129900000000     0          
O        O      0.843850000000     0.650650000000     0.438900000000     0          
O        O      0.907500000000     0.564000000000     0.131200000000     0          
O        O      0.912000000000     0.629050000000     0.131500000000     0          
O        O      0.811050000000     0.653200000000     0.054900000000     0          
O        O      0.795650000000     0.658400000000     0.031900000000     0          
O        O      0.798750000000     0.599400000000     0.042200000000     0          
O        O      0.937800000000     0.603550000000     0.994700000000     0          
O        O      0.873800000000     0.605200000000     0.989400000000     0          
O        O      0.898900000000     0.559600000000     0.397500000000     0          
O        O      0.937250000000     0.552950000000     0.416600000000     0          
O        O      0.941100000000     0.645000000000     0.049400000000     0          
O        O      0.902000000000     0.600350000000     0.039100000000     0          
O        O      0.904900000000     0.661000000000     0.030500000000     0          
O        O      0.875950000000     0.649400000000     0.051600000000     0          
O        O      0.790800000000     0.685550000000     0.010400000000     0          
O        O      0.851150000000     0.690400000000     0.067800000000     0          
O        O      0.848300000000     0.626050000000     0.071800000000     0          
O        O      0.906700000000     0.593600000000     0.377400000000     0          
O        O      0.964100000000     0.624450000000     0.070400000000     0          
O        O      0.945600000000     0.686950000000     0.067800000000     0          
O        O      0.792450000000     0.591350000000     0.375400000000     0          
O        O      0.808800000000     0.595000000000     0.990700000000     0          
O        O      0.805750000000     0.622350000000     0.012300000000     0          
O        O      0.786700000000     0.561000000000     0.009500000000     0          
O        O      0.849400000000     0.668200000000     0.018600000000     0          
O        O      0.953700000000     0.559650000000     0.071100000000     0          
O        O      0.940050000000     0.552950000000     0.047900000000     0          
O        O      0.905900000000     0.542950000000     0.027800000000     0          
O        O      0.874850000000     0.546850000000     0.048800000000     0          
O        O      0.794850000000     0.559200000000     0.396200000000     0          
O        O      0.847900000000     0.590150000000     0.387800000000     0          
O        O      0.811650000000     0.702100000000     0.112900000000     0          
O        O      0.797550000000     0.687700000000     0.135500000000     0          
O        O      0.954350000000     0.538500000000     0.439200000000     0          
O        O      0.899900000000     0.549850000000     0.451600000000     0          
O        O      0.845400000000     0.549200000000     0.019300000000     0          
O        O      0.811850000000     0.545650000000     0.055000000000     0          
O        O      0.791150000000     0.540550000000     0.032300000000     0          
O        O      0.906300000000     0.601200000000     0.077700000000     0          
O        O      0.950500000000     0.558850000000     0.192000000000     0          
O        O      0.938400000000     0.552150000000     0.168800000000     0          
O        O      0.838000000000     0.698300000000     0.091100000000     0          
O        O      0.876400000000     0.693650000000     0.110300000000     0          
O        O      0.939350000000     0.709300000000     0.112800000000     0          
O        O      0.960950000000     0.705700000000     0.090100000000     0          
O        O      0.898950000000     0.706650000000     0.083000000000     0          
O        O      0.857400000000     0.561350000000     0.071200000000     0          
O        O      0.810500000000     0.538400000000     0.175800000000     0          
O        O      0.802750000000     0.551450000000     0.152600000000     0          
O        O      0.891850000000     0.539200000000     0.152700000000     0          
O        O      0.875500000000     0.548800000000     0.175400000000     0          
O        O      0.903450000000     0.693450000000     0.132100000000     0          
O        O      0.849100000000     0.694100000000     0.213100000000     0          
O        O      0.853150000000     0.653600000000     0.136800000000     0          
O        O      0.846650000000     0.543200000000     0.135300000000     0          
O        O      0.897300000000     0.593500000000     0.198500000000     0          
O        O      0.902850000000     0.705750000000     0.200300000000     0          
O        O      0.840850000000     0.562550000000     0.194900000000     0          
T        Si     0.890700000000     0.537850000000     0.261000000000     0          
T        Si     0.860400000000     0.537750000000     0.330600000000     0          
T        Si     0.861150000000     0.659700000000     0.330800000000     0          
T        Si     0.961350000000     0.600200000000     0.344800000000     0          
T        Si     0.788100000000     0.596950000000     0.246000000000     0          
T        Si     0.908500000000     0.593300000000     0.244400000000     0          
T        Si     0.890000000000     0.657750000000     0.259800000000     0          
T        Si     0.961800000000     0.712600000000     0.348800000000     0          
T        Si     0.788150000000     0.692500000000     0.368300000000     0          
T        Si     0.904350000000     0.688050000000     0.365100000000     0          
T        Si     0.811700000000     0.712350000000     0.394100000000     0          
T        Si     0.843150000000     0.713000000000     0.349400000000     0          
T        Si     0.962700000000     0.687100000000     0.222900000000     0          
T        Si     0.939150000000     0.662600000000     0.329400000000     0          
T        Si     0.962000000000     0.562850000000     0.305700000000     0          
T        Si     0.844550000000     0.560700000000     0.304700000000     0          
T        Si     0.788000000000     0.561600000000     0.285800000000     0          
T        Si     0.889150000000     0.711300000000     0.391800000000     0          
T        Si     0.788450000000     0.712350000000     0.242700000000     0          
T        Si     0.903800000000     0.560050000000     0.287200000000     0          
T        Si     0.908050000000     0.712600000000     0.241600000000     0          
T        Si     0.845550000000     0.594950000000     0.470000000000     0          
T        Si     0.904500000000     0.652500000000     0.408100000000     0          
T        Si     0.845850000000     0.596200000000     0.346700000000     0          
T        Si     0.788550000000     0.648600000000     0.407200000000     0          
T        Si     0.788100000000     0.638850000000     0.286200000000     0          
T        Si     0.845000000000     0.712850000000     0.469700000000     0          
T        Si     0.961400000000     0.599450000000     0.466900000000     0          
T        Si     0.848100000000     0.608650000000     0.228600000000     0          
T        Si     0.960550000000     0.610950000000     0.224300000000     0          
T        Si     0.787950000000     0.635750000000     0.165300000000     0          
T        Si     0.961950000000     0.613600000000     0.104000000000     0          
T        Si     0.961550000000     0.649500000000     0.182900000000     0          
T        Si     0.903150000000     0.638150000000     0.286600000000     0          
T        Si     0.903900000000     0.686800000000     0.487000000000     0          
T        Si     0.937550000000     0.661000000000     0.451100000000     0          
T        Si     0.843300000000     0.656750000000     0.182900000000     0          
T        Si     0.961750000000     0.637750000000     0.426500000000     0          
T        Si     0.902700000000     0.637600000000     0.164900000000     0          
T        Si     0.844850000000     0.606100000000     0.105400000000     0          
T        Si     0.961200000000     0.711900000000     0.470600000000     0          
T        Si     0.961700000000     0.639550000000     0.304500000000     0          
T        Si     0.787400000000     0.694300000000     0.487000000000     0          
T        Si     0.846150000000     0.557500000000     0.425800000000     0          
T        Si     0.786950000000     0.592950000000     0.121300000000     0          
T        Si     0.846650000000     0.634850000000     0.425500000000     0          
T        Si     0.908100000000     0.596950000000     0.122900000000     0          
T        Si     0.788700000000     0.637800000000     0.044200000000     0          
T        Si     0.905900000000     0.537700000000     0.409400000000     0          
T        Si     0.905950000000     0.638950000000     0.042800000000     0          
T        Si     0.846850000000     0.654550000000     0.061500000000     0          
T        Si     0.904750000000     0.609750000000     0.364000000000     0          
T        Si     0.962500000000     0.655500000000     0.061200000000     0          
T        Si     0.788200000000     0.617500000000     0.364400000000     0          
T        Si     0.788750000000     0.618400000000     0.487300000000     0          
T        Si     0.787650000000     0.597050000000     0.003100000000     0          
T        Si     0.810550000000     0.658450000000     0.018300000000     0          
T        Si     0.888700000000     0.661550000000     0.017200000000     0          
T        Si     0.961050000000     0.538150000000     0.059100000000     0          
T        Si     0.905650000000     0.560800000000     0.040900000000     0          
T        Si     0.808000000000     0.591400000000     0.388900000000     0          
T        Si     0.788500000000     0.711700000000     0.124300000000     0          
T        Si     0.938000000000     0.537650000000     0.452600000000     0          
T        Si     0.845050000000     0.638300000000     0.304700000000     0          
T        Si     0.906500000000     0.608050000000     0.486800000000     0          
T        Si     0.861600000000     0.538300000000     0.452400000000     0          
T        Si     0.882900000000     0.538350000000     0.015900000000     0          
T        Si     0.788050000000     0.561450000000     0.044700000000     0          
T        Si     0.945800000000     0.594700000000     0.077600000000     0          
T        Si     0.858650000000     0.657200000000     0.452300000000     0          
T        Si     0.961350000000     0.539250000000     0.179900000000     0          
T        Si     0.807000000000     0.537950000000     0.018900000000     0          
T        Si     0.840350000000     0.684850000000     0.104900000000     0          
T        Si     0.962100000000     0.688700000000     0.103400000000     0          
T        Si     0.860100000000     0.711350000000     0.079900000000     0          
T        Si     0.849200000000     0.538550000000     0.059600000000     0          
T        Si     0.866750000000     0.595200000000     0.078200000000     0          
T        Si     0.887350000000     0.592250000000     0.390200000000     0          
T        Si     0.787800000000     0.557700000000     0.166000000000     0          
T        Si     0.900650000000     0.559850000000     0.164800000000     0          
T        Si     0.903150000000     0.711600000000     0.119000000000     0          
T        Si     0.936900000000     0.712150000000     0.078700000000     0          
T        Si     0.846850000000     0.686500000000     0.227400000000     0          
T        Si     0.813400000000     0.651750000000     0.138400000000     0          
T        Si     0.885350000000     0.536900000000     0.138300000000     0          
T        Si     0.808150000000     0.538550000000     0.139000000000     0          
T        Si     0.937150000000     0.590750000000     0.199400000000     0          
T        Si     0.892650000000     0.658800000000     0.138300000000     0          
T        Si     0.941750000000     0.712150000000     0.197700000000     0          
T        Si     0.863200000000     0.711000000000     0.200800000000     0          
T        Si     0.857600000000     0.596000000000     0.200200000000     0          
T        Si     0.937300000000     0.537950000000     0.330800000000     0          
T        Si     0.815300000000     0.538000000000     0.261000000000     0          
T        Si     0.844350000000     0.537500000000     0.183600000000     0          
T        Si     0.811250000000     0.660150000000     0.261100000000     0          
T        Si     0.788750000000     0.538250000000     0.408400000000     0          
T        Si     0.962350000000     0.561400000000     0.427600000000     0          
O        O      0.551450000000     0.646950000000     0.739600000000     0          
O        O      0.539100000000     0.595950000000     0.725200000000     0          
O        O      0.559850000000     0.585950000000     0.747800000000     0          
O        O      0.539850000000     0.654950000000     0.682800000000     0          
O        O      0.561350000000     0.660150000000     0.660200000000     0          
O        O      0.549150000000     0.601200000000     0.669600000000     0          
O        O      0.623300000000     0.643300000000     0.663300000000     0          
O        O      0.686100000000     0.659900000000     0.661300000000     0          
O        O      0.659550000000     0.652650000000     0.682900000000     0          
O        O      0.669600000000     0.600050000000     0.669100000000     0          
O        O      0.562900000000     0.542800000000     0.660300000000     0          
O        O      0.604400000000     0.560400000000     0.643000000000     0          
O        O      0.626650000000     0.551500000000     0.665100000000     0          
O        O      0.561200000000     0.707650000000     0.747500000000     0          
O        O      0.599450000000     0.687400000000     0.765500000000     0          
O        O      0.625850000000     0.702950000000     0.744400000000     0          
O        O      0.622950000000     0.599100000000     0.746200000000     0          
O        O      0.588550000000     0.622800000000     0.764600000000     0          
O        O      0.601100000000     0.558350000000     0.763300000000     0          
O        O      0.687200000000     0.590600000000     0.747100000000     0          
O        O      0.662950000000     0.649500000000     0.741500000000     0          
O        O      0.658150000000     0.599700000000     0.726000000000     0          
O        O      0.694200000000     0.559550000000     0.640800000000     0          
O        O      0.691400000000     0.540500000000     0.663600000000     0          
O        O      0.710100000000     0.707850000000     0.618700000000     0          
O        O      0.710600000000     0.688450000000     0.641600000000     0          
O        O      0.653900000000     0.701550000000     0.630800000000     0          
O        O      0.703200000000     0.595700000000     0.621400000000     0          
O        O      0.706850000000     0.623250000000     0.643000000000     0          
O        O      0.648800000000     0.603350000000     0.634600000000     0          
O        O      0.686900000000     0.704700000000     0.596400000000     0          
O        O      0.702550000000     0.649900000000     0.608000000000     0          
O        O      0.706150000000     0.537650000000     0.790000000000     0          
O        O      0.648950000000     0.548350000000     0.779000000000     0          
O        O      0.705250000000     0.562000000000     0.767700000000     0          
O        O      0.663800000000     0.551000000000     0.684800000000     0          
O        O      0.540350000000     0.547800000000     0.682700000000     0          
O        O      0.554200000000     0.561650000000     0.705700000000     0          
O        O      0.601650000000     0.541800000000     0.690900000000     0          
O        O      0.555650000000     0.690750000000     0.702000000000     0          
O        O      0.599450000000     0.649800000000     0.692300000000     0          
O        O      0.547750000000     0.626350000000     0.704200000000     0          
O        O      0.600350000000     0.710700000000     0.717900000000     0          
O        O      0.539550000000     0.697350000000     0.725200000000     0          
O        O      0.688550000000     0.592100000000     0.598200000000     0          
O        O      0.691200000000     0.707650000000     0.745000000000     0          
O        O      0.694900000000     0.690200000000     0.768000000000     0          
O        O      0.598900000000     0.600850000000     0.715900000000     0          
O        O      0.709450000000     0.627000000000     0.765400000000     0          
O        O      0.600950000000     0.689150000000     0.523100000000     0          
O        O      0.625050000000     0.647250000000     0.539300000000     0          
O        O      0.592100000000     0.624500000000     0.520400000000     0          
O        O      0.560900000000     0.657300000000     0.537700000000     0          
O        O      0.625150000000     0.604300000000     0.602100000000     0          
O        O      0.654100000000     0.624850000000     0.582000000000     0          
O        O      0.642900000000     0.560950000000     0.585400000000     0          
O        O      0.607400000000     0.688100000000     0.646800000000     0          
O        O      0.592050000000     0.624800000000     0.643500000000     0          
O        O      0.638450000000     0.688450000000     0.581400000000     0          
O        O      0.624900000000     0.703000000000     0.604200000000     0          
O        O      0.643750000000     0.690850000000     0.701500000000     0          
O        O      0.661000000000     0.695450000000     0.724400000000     0          
O        O      0.713900000000     0.688550000000     0.522300000000     0          
O        O      0.688600000000     0.660250000000     0.541700000000     0          
O        O      0.699700000000     0.624550000000     0.522100000000     0          
O        O      0.602350000000     0.559700000000     0.520700000000     0          
O        O      0.625850000000     0.552300000000     0.542900000000     0          
O        O      0.562300000000     0.542000000000     0.538500000000     0          
O        O      0.599050000000     0.651650000000     0.785600000000     0          
O        O      0.647950000000     0.645050000000     0.770000000000     0          
O        O      0.587400000000     0.552050000000     0.786600000000     0          
O        O      0.655950000000     0.690900000000     0.824700000000     0          
O        O      0.640750000000     0.695500000000     0.847900000000     0          
O        O      0.596950000000     0.711600000000     0.831100000000     0          
O        O      0.594500000000     0.560250000000     0.886100000000     0          
O        O      0.651100000000     0.551450000000     0.897700000000     0          
O        O      0.593800000000     0.540350000000     0.908700000000     0          
O        O      0.641250000000     0.561500000000     0.828700000000     0          
O        O      0.624050000000     0.546500000000     0.806200000000     0          
O        O      0.687100000000     0.545350000000     0.812700000000     0          
O        O      0.645200000000     0.561100000000     0.707300000000     0          
O        O      0.650400000000     0.626050000000     0.704400000000     0          
O        O      0.705400000000     0.599600000000     0.500100000000     0          
O        O      0.647250000000     0.599750000000     0.511200000000     0          
O        O      0.695200000000     0.560050000000     0.518600000000     0          
O        O      0.662250000000     0.550500000000     0.562800000000     0          
O        O      0.665500000000     0.602250000000     0.548400000000     0          
O        O      0.691100000000     0.544800000000     0.541700000000     0          
O        O      0.627750000000     0.656700000000     0.807000000000     0          
O        O      0.651600000000     0.625750000000     0.826200000000     0          
O        O      0.692550000000     0.653450000000     0.810600000000     0          
O        O      0.600000000000     0.541500000000     0.568800000000     0          
O        O      0.658700000000     0.597600000000     0.847500000000     0          
O        O      0.598900000000     0.604000000000     0.838000000000     0          
O        O      0.586600000000     0.687650000000     0.889800000000     0          
O        O      0.645050000000     0.664250000000     0.895200000000     0          
O        O      0.592600000000     0.644900000000     0.907800000000     0          
O        O      0.599950000000     0.625400000000     0.885000000000     0          
O        O      0.656600000000     0.699750000000     0.511400000000     0          
O        O      0.542300000000     0.656000000000     0.560600000000     0          
O        O      0.596150000000     0.643500000000     0.573400000000     0          
O        O      0.554050000000     0.689450000000     0.580700000000     0          
O        O      0.537550000000     0.626300000000     0.581900000000     0          
O        O      0.624850000000     0.701350000000     0.871000000000     0          
O        O      0.560550000000     0.714250000000     0.870100000000     0          
O        O      0.650650000000     0.656150000000     0.561100000000     0          
O        O      0.564000000000     0.592500000000     0.868800000000     0          
O        O      0.629050000000     0.588000000000     0.868500000000     0          
O        O      0.653200000000     0.688950000000     0.945100000000     0          
O        O      0.658400000000     0.704350000000     0.968100000000     0          
O        O      0.599400000000     0.701250000000     0.957800000000     0          
O        O      0.603550000000     0.562200000000     0.005300000000     0          
O        O      0.605200000000     0.626200000000     0.010600000000     0          
O        O      0.559600000000     0.601100000000     0.602500000000     0          
O        O      0.552950000000     0.562750000000     0.583400000000     0          
O        O      0.645000000000     0.558900000000     0.950600000000     0          
O        O      0.600350000000     0.598000000000     0.960900000000     0          
O        O      0.661000000000     0.595100000000     0.969500000000     0          
O        O      0.649400000000     0.624050000000     0.948400000000     0          
O        O      0.685550000000     0.709200000000     0.989600000000     0          
O        O      0.690400000000     0.648850000000     0.932200000000     0          
O        O      0.626050000000     0.651700000000     0.928200000000     0          
O        O      0.593600000000     0.593300000000     0.622600000000     0          
O        O      0.624450000000     0.535900000000     0.929600000000     0          
O        O      0.686950000000     0.554400000000     0.932200000000     0          
O        O      0.591350000000     0.707550000000     0.624600000000     0          
O        O      0.595000000000     0.691200000000     0.009300000000     0          
O        O      0.622350000000     0.694250000000     0.987700000000     0          
O        O      0.561000000000     0.713300000000     0.990500000000     0          
O        O      0.668200000000     0.650600000000     0.981400000000     0          
O        O      0.559650000000     0.546300000000     0.928900000000     0          
O        O      0.552950000000     0.559950000000     0.952100000000     0          
O        O      0.542950000000     0.594100000000     0.972200000000     0          
O        O      0.546850000000     0.625150000000     0.951200000000     0          
O        O      0.559200000000     0.705150000000     0.603800000000     0          
O        O      0.590150000000     0.652100000000     0.612200000000     0          
O        O      0.702100000000     0.688350000000     0.887100000000     0          
O        O      0.687700000000     0.702450000000     0.864500000000     0          
O        O      0.538500000000     0.545650000000     0.560800000000     0          
O        O      0.549850000000     0.600100000000     0.548400000000     0          
O        O      0.549200000000     0.654600000000     0.980700000000     0          
O        O      0.545650000000     0.688150000000     0.945000000000     0          
O        O      0.540550000000     0.708850000000     0.967700000000     0          
O        O      0.601200000000     0.593700000000     0.922300000000     0          
O        O      0.558850000000     0.549500000000     0.808000000000     0          
O        O      0.552150000000     0.561600000000     0.831200000000     0          
O        O      0.698300000000     0.662000000000     0.908900000000     0          
O        O      0.693650000000     0.623600000000     0.889700000000     0          
O        O      0.709300000000     0.560650000000     0.887200000000     0          
O        O      0.705700000000     0.539050000000     0.909900000000     0          
O        O      0.706650000000     0.601050000000     0.917000000000     0          
O        O      0.561350000000     0.642600000000     0.928800000000     0          
O        O      0.538400000000     0.689500000000     0.824200000000     0          
O        O      0.551450000000     0.697250000000     0.847400000000     0          
O        O      0.539200000000     0.608150000000     0.847300000000     0          
O        O      0.548800000000     0.624500000000     0.824600000000     0          
O        O      0.693450000000     0.596550000000     0.867900000000     0          
O        O      0.694100000000     0.650900000000     0.786900000000     0          
O        O      0.653600000000     0.646850000000     0.863200000000     0          
O        O      0.543200000000     0.653350000000     0.864700000000     0          
O        O      0.593500000000     0.602700000000     0.801500000000     0          
O        O      0.705750000000     0.597150000000     0.799700000000     0          
O        O      0.562550000000     0.659150000000     0.805100000000     0          
T        Si     0.537850000000     0.609300000000     0.739000000000     0          
T        Si     0.537750000000     0.639600000000     0.669400000000     0          
T        Si     0.659700000000     0.638850000000     0.669200000000     0          
T        Si     0.600200000000     0.538650000000     0.655200000000     0          
T        Si     0.596950000000     0.711900000000     0.754000000000     0          
T        Si     0.593300000000     0.591500000000     0.755600000000     0          
T        Si     0.657750000000     0.610000000000     0.740200000000     0          
T        Si     0.712600000000     0.538200000000     0.651200000000     0          
T        Si     0.692500000000     0.711850000000     0.631700000000     0          
T        Si     0.688050000000     0.595650000000     0.634900000000     0          
T        Si     0.712350000000     0.688300000000     0.605900000000     0          
T        Si     0.713000000000     0.656850000000     0.650600000000     0          
T        Si     0.687100000000     0.537300000000     0.777100000000     0          
T        Si     0.662600000000     0.560850000000     0.670600000000     0          
T        Si     0.562850000000     0.538000000000     0.694300000000     0          
T        Si     0.560700000000     0.655450000000     0.695300000000     0          
T        Si     0.561600000000     0.712000000000     0.714200000000     0          
T        Si     0.711300000000     0.610850000000     0.608200000000     0          
T        Si     0.712350000000     0.711550000000     0.757300000000     0          
T        Si     0.560050000000     0.596200000000     0.712800000000     0          
T        Si     0.712600000000     0.591950000000     0.758400000000     0          
T        Si     0.594950000000     0.654450000000     0.530000000000     0          
T        Si     0.652500000000     0.595500000000     0.591900000000     0          
T        Si     0.596200000000     0.654150000000     0.653300000000     0          
T        Si     0.648600000000     0.711450000000     0.592800000000     0          
T        Si     0.638850000000     0.711900000000     0.713800000000     0          
T        Si     0.712850000000     0.655000000000     0.530300000000     0          
T        Si     0.599450000000     0.538600000000     0.533100000000     0          
T        Si     0.608650000000     0.651900000000     0.771400000000     0          
T        Si     0.610950000000     0.539450000000     0.775700000000     0          
T        Si     0.635750000000     0.712050000000     0.834700000000     0          
T        Si     0.613600000000     0.538050000000     0.896000000000     0          
T        Si     0.649500000000     0.538450000000     0.817100000000     0          
T        Si     0.638150000000     0.596850000000     0.713400000000     0          
T        Si     0.686800000000     0.596100000000     0.513000000000     0          
T        Si     0.661000000000     0.562450000000     0.548900000000     0          
T        Si     0.656750000000     0.656700000000     0.817100000000     0          
T        Si     0.637750000000     0.538250000000     0.573500000000     0          
T        Si     0.637600000000     0.597300000000     0.835100000000     0          
T        Si     0.606100000000     0.655150000000     0.894600000000     0          
T        Si     0.711900000000     0.538800000000     0.529400000000     0          
T        Si     0.639550000000     0.538300000000     0.695500000000     0          
T        Si     0.694300000000     0.712600000000     0.513000000000     0          
T        Si     0.557500000000     0.653850000000     0.574200000000     0          
T        Si     0.592950000000     0.713050000000     0.878700000000     0          
T        Si     0.634850000000     0.653350000000     0.574500000000     0          
T        Si     0.596950000000     0.591900000000     0.877100000000     0          
T        Si     0.637800000000     0.711300000000     0.955800000000     0          
T        Si     0.537700000000     0.594100000000     0.590600000000     0          
T        Si     0.638950000000     0.594050000000     0.957200000000     0          
T        Si     0.654550000000     0.653150000000     0.938500000000     0          
T        Si     0.609750000000     0.595250000000     0.636000000000     0          
T        Si     0.655500000000     0.537500000000     0.938800000000     0          
T        Si     0.617500000000     0.711800000000     0.635600000000     0          
T        Si     0.618400000000     0.711250000000     0.512700000000     0          
T        Si     0.597050000000     0.712350000000     0.996900000000     0          
T        Si     0.658450000000     0.689450000000     0.981700000000     0          
T        Si     0.661550000000     0.611300000000     0.982800000000     0          
T        Si     0.538150000000     0.538950000000     0.940900000000     0          
T        Si     0.560800000000     0.594350000000     0.959100000000     0          
T        Si     0.591400000000     0.692000000000     0.611100000000     0          
T        Si     0.711700000000     0.711500000000     0.875700000000     0          
T        Si     0.537650000000     0.562000000000     0.547400000000     0          
T        Si     0.638300000000     0.654950000000     0.695300000000     0          
T        Si     0.608050000000     0.593500000000     0.513200000000     0          
T        Si     0.538300000000     0.638400000000     0.547600000000     0          
T        Si     0.538350000000     0.617100000000     0.984100000000     0          
T        Si     0.561450000000     0.711950000000     0.955300000000     0          
T        Si     0.594700000000     0.554200000000     0.922400000000     0          
T        Si     0.657200000000     0.641350000000     0.547700000000     0          
T        Si     0.539250000000     0.538650000000     0.820100000000     0          
T        Si     0.537950000000     0.693000000000     0.981100000000     0          
T        Si     0.684850000000     0.659650000000     0.895100000000     0          
T        Si     0.688700000000     0.537900000000     0.896600000000     0          
T        Si     0.711350000000     0.639900000000     0.920100000000     0          
T        Si     0.538550000000     0.650800000000     0.940400000000     0          
T        Si     0.595200000000     0.633250000000     0.921800000000     0          
T        Si     0.592250000000     0.612650000000     0.609800000000     0          
T        Si     0.557700000000     0.712200000000     0.834000000000     0          
T        Si     0.559850000000     0.599350000000     0.835200000000     0          
T        Si     0.711600000000     0.596850000000     0.881000000000     0          
T        Si     0.712150000000     0.563100000000     0.921300000000     0          
T        Si     0.686500000000     0.653150000000     0.772600000000     0          
T        Si     0.651750000000     0.686600000000     0.861600000000     0          
T        Si     0.536900000000     0.614650000000     0.861700000000     0          
T        Si     0.538550000000     0.691850000000     0.861000000000     0          
T        Si     0.590750000000     0.562850000000     0.800600000000     0          
T        Si     0.658800000000     0.607350000000     0.861700000000     0          
T        Si     0.712150000000     0.558250000000     0.802300000000     0          
T        Si     0.711000000000     0.636800000000     0.799200000000     0          
T        Si     0.596000000000     0.642400000000     0.799800000000     0          
T        Si     0.537950000000     0.562700000000     0.669200000000     0          
T        Si     0.538000000000     0.684700000000     0.739000000000     0          
T        Si     0.537500000000     0.655650000000     0.816400000000     0          
T        Si     0.660150000000     0.688750000000     0.738900000000     0          
T        Si     0.538250000000     0.711250000000     0.591600000000     0          
T        Si     0.561400000000     0.537650000000     0.572400000000     0          
O        O      0.646950000000     0.948550000000     0.260400000000     0          
O        O      0.595950000000     0.960900000000     0.274800000000     0          
O        O      0.585950000000     0.940150000000     0.252200000000     0          
O        O      0.654950000000     0.960150000000     0.317200000000     0          
O        O      0.660150000000     0.938650000000     0.339800000000     0          
O        O      0.601200000000     0.950850000000     0.330400000000     0          
O        O      0.643300000000     0.876700000000     0.336700000000     0          
O        O      0.659900000000     0.813900000000     0.338700000000     0          
O        O      0.652650000000     0.840450000000     0.317100000000     0          
O        O      0.600050000000     0.830400000000     0.330900000000     0          
O        O      0.542800000000     0.937100000000     0.339700000000     0          
O        O      0.560400000000     0.895600000000     0.357000000000     0          
O        O      0.551500000000     0.873350000000     0.334900000000     0          
O        O      0.707650000000     0.938800000000     0.252500000000     0          
O        O      0.687400000000     0.900550000000     0.234500000000     0          
O        O      0.702950000000     0.874150000000     0.255600000000     0          
O        O      0.599100000000     0.877050000000     0.253800000000     0          
O        O      0.622800000000     0.911450000000     0.235400000000     0          
O        O      0.558350000000     0.898900000000     0.236700000000     0          
O        O      0.590600000000     0.812800000000     0.252900000000     0          
O        O      0.649500000000     0.837050000000     0.258500000000     0          
O        O      0.599700000000     0.841850000000     0.274000000000     0          
O        O      0.559550000000     0.805800000000     0.359200000000     0          
O        O      0.540500000000     0.808600000000     0.336400000000     0          
O        O      0.707850000000     0.789900000000     0.381300000000     0          
O        O      0.688450000000     0.789400000000     0.358400000000     0          
O        O      0.701550000000     0.846100000000     0.369200000000     0          
O        O      0.595700000000     0.796800000000     0.378600000000     0          
O        O      0.623250000000     0.793150000000     0.357000000000     0          
O        O      0.603350000000     0.851200000000     0.365400000000     0          
O        O      0.704700000000     0.813100000000     0.403600000000     0          
O        O      0.649900000000     0.797450000000     0.392000000000     0          
O        O      0.537650000000     0.793850000000     0.210000000000     0          
O        O      0.548350000000     0.851050000000     0.221000000000     0          
O        O      0.562000000000     0.794750000000     0.232300000000     0          
O        O      0.551000000000     0.836200000000     0.315200000000     0          
O        O      0.547800000000     0.959650000000     0.317300000000     0          
O        O      0.561650000000     0.945800000000     0.294300000000     0          
O        O      0.541800000000     0.898350000000     0.309100000000     0          
O        O      0.690750000000     0.944350000000     0.298000000000     0          
O        O      0.649800000000     0.900550000000     0.307700000000     0          
O        O      0.626350000000     0.952250000000     0.295800000000     0          
O        O      0.710700000000     0.899650000000     0.282100000000     0          
O        O      0.697350000000     0.960450000000     0.274800000000     0          
O        O      0.592100000000     0.811450000000     0.401800000000     0          
O        O      0.707650000000     0.808800000000     0.255000000000     0          
O        O      0.690200000000     0.805100000000     0.232000000000     0          
O        O      0.600850000000     0.901100000000     0.284100000000     0          
O        O      0.627000000000     0.790550000000     0.234600000000     0          
O        O      0.689150000000     0.899050000000     0.476900000000     0          
O        O      0.647250000000     0.874950000000     0.460700000000     0          
O        O      0.624500000000     0.907900000000     0.479600000000     0          
O        O      0.657300000000     0.939100000000     0.462300000000     0          
O        O      0.604300000000     0.874850000000     0.397900000000     0          
O        O      0.624850000000     0.845900000000     0.418000000000     0          
O        O      0.560950000000     0.857100000000     0.414600000000     0          
O        O      0.688100000000     0.892600000000     0.353200000000     0          
O        O      0.624800000000     0.907950000000     0.356500000000     0          
O        O      0.688450000000     0.861550000000     0.418600000000     0          
O        O      0.703000000000     0.875100000000     0.395800000000     0          
O        O      0.690850000000     0.856250000000     0.298500000000     0          
O        O      0.695450000000     0.839000000000     0.275600000000     0          
O        O      0.688550000000     0.786100000000     0.477700000000     0          
O        O      0.660250000000     0.811400000000     0.458300000000     0          
O        O      0.624550000000     0.800300000000     0.477900000000     0          
O        O      0.559700000000     0.897650000000     0.479300000000     0          
O        O      0.552300000000     0.874150000000     0.457100000000     0          
O        O      0.542000000000     0.937700000000     0.461500000000     0          
O        O      0.651650000000     0.900950000000     0.214400000000     0          
O        O      0.645050000000     0.852050000000     0.230000000000     0          
O        O      0.552050000000     0.912600000000     0.213400000000     0          
O        O      0.690900000000     0.844050000000     0.175300000000     0          
O        O      0.695500000000     0.859250000000     0.152100000000     0          
O        O      0.711600000000     0.903050000000     0.168900000000     0          
O        O      0.560250000000     0.905500000000     0.113900000000     0          
O        O      0.551450000000     0.848900000000     0.102300000000     0          
O        O      0.540350000000     0.906200000000     0.091300000000     0          
O        O      0.561500000000     0.858750000000     0.171300000000     0          
O        O      0.546500000000     0.875950000000     0.193800000000     0          
O        O      0.545350000000     0.812900000000     0.187300000000     0          
O        O      0.561100000000     0.854800000000     0.292700000000     0          
O        O      0.626050000000     0.849600000000     0.295600000000     0          
O        O      0.599600000000     0.794600000000     0.499900000000     0          
O        O      0.599750000000     0.852750000000     0.488800000000     0          
O        O      0.560050000000     0.804800000000     0.481400000000     0          
O        O      0.550500000000     0.837750000000     0.437200000000     0          
O        O      0.602250000000     0.834500000000     0.451600000000     0          
O        O      0.544800000000     0.808900000000     0.458300000000     0          
O        O      0.656700000000     0.872250000000     0.193000000000     0          
O        O      0.625750000000     0.848400000000     0.173800000000     0          
O        O      0.653450000000     0.807450000000     0.189400000000     0          
O        O      0.541500000000     0.900000000000     0.431200000000     0          
O        O      0.597600000000     0.841300000000     0.152500000000     0          
O        O      0.604000000000     0.901100000000     0.162000000000     0          
O        O      0.687650000000     0.913400000000     0.110200000000     0          
O        O      0.664250000000     0.854950000000     0.104800000000     0          
O        O      0.644900000000     0.907400000000     0.092200000000     0          
O        O      0.625400000000     0.900050000000     0.115000000000     0          
O        O      0.699750000000     0.843400000000     0.488600000000     0          
O        O      0.656000000000     0.957700000000     0.439400000000     0          
O        O      0.643500000000     0.903850000000     0.426600000000     0          
O        O      0.689450000000     0.945950000000     0.419300000000     0          
O        O      0.626300000000     0.962450000000     0.418100000000     0          
O        O      0.701350000000     0.875150000000     0.129000000000     0          
O        O      0.714250000000     0.939450000000     0.129900000000     0          
O        O      0.656150000000     0.849350000000     0.438900000000     0          
O        O      0.592500000000     0.936000000000     0.131200000000     0          
O        O      0.588000000000     0.870950000000     0.131500000000     0          
O        O      0.688950000000     0.846800000000     0.054900000000     0          
O        O      0.704350000000     0.841600000000     0.031900000000     0          
O        O      0.701250000000     0.900600000000     0.042200000000     0          
O        O      0.562200000000     0.896450000000     0.994700000000     0          
O        O      0.626200000000     0.894800000000     0.989400000000     0          
O        O      0.601100000000     0.940400000000     0.397500000000     0          
O        O      0.562750000000     0.947050000000     0.416600000000     0          
O        O      0.558900000000     0.855000000000     0.049400000000     0          
O        O      0.598000000000     0.899650000000     0.039100000000     0          
O        O      0.595100000000     0.839000000000     0.030500000000     0          
O        O      0.624050000000     0.850600000000     0.051600000000     0          
O        O      0.709200000000     0.814450000000     0.010400000000     0          
O        O      0.648850000000     0.809600000000     0.067800000000     0          
O        O      0.651700000000     0.873950000000     0.071800000000     0          
O        O      0.593300000000     0.906400000000     0.377400000000     0          
O        O      0.535900000000     0.875550000000     0.070400000000     0          
O        O      0.554400000000     0.813050000000     0.067800000000     0          
O        O      0.707550000000     0.908650000000     0.375400000000     0          
O        O      0.691200000000     0.905000000000     0.990700000000     0          
O        O      0.694250000000     0.877650000000     0.012300000000     0          
O        O      0.713300000000     0.939000000000     0.009500000000     0          
O        O      0.650600000000     0.831800000000     0.018600000000     0          
O        O      0.546300000000     0.940350000000     0.071100000000     0          
O        O      0.559950000000     0.947050000000     0.047900000000     0          
O        O      0.594100000000     0.957050000000     0.027800000000     0          
O        O      0.625150000000     0.953150000000     0.048800000000     0          
O        O      0.705150000000     0.940800000000     0.396200000000     0          
O        O      0.652100000000     0.909850000000     0.387800000000     0          
O        O      0.688350000000     0.797900000000     0.112900000000     0          
O        O      0.702450000000     0.812300000000     0.135500000000     0          
O        O      0.545650000000     0.961500000000     0.439200000000     0          
O        O      0.600100000000     0.950150000000     0.451600000000     0          
O        O      0.654600000000     0.950800000000     0.019300000000     0          
O        O      0.688150000000     0.954350000000     0.055000000000     0          
O        O      0.708850000000     0.959450000000     0.032300000000     0          
O        O      0.593700000000     0.898800000000     0.077700000000     0          
O        O      0.549500000000     0.941150000000     0.192000000000     0          
O        O      0.561600000000     0.947850000000     0.168800000000     0          
O        O      0.662000000000     0.801700000000     0.091100000000     0          
O        O      0.623600000000     0.806350000000     0.110300000000     0          
O        O      0.560650000000     0.790700000000     0.112800000000     0          
O        O      0.539050000000     0.794300000000     0.090100000000     0          
O        O      0.601050000000     0.793350000000     0.083000000000     0          
O        O      0.642600000000     0.938650000000     0.071200000000     0          
O        O      0.689500000000     0.961600000000     0.175800000000     0          
O        O      0.697250000000     0.948550000000     0.152600000000     0          
O        O      0.608150000000     0.960800000000     0.152700000000     0          
O        O      0.624500000000     0.951200000000     0.175400000000     0          
O        O      0.596550000000     0.806550000000     0.132100000000     0          
O        O      0.650900000000     0.805900000000     0.213100000000     0          
O        O      0.646850000000     0.846400000000     0.136800000000     0          
O        O      0.653350000000     0.956800000000     0.135300000000     0          
O        O      0.602700000000     0.906500000000     0.198500000000     0          
O        O      0.597150000000     0.794250000000     0.200300000000     0          
O        O      0.659150000000     0.937450000000     0.194900000000     0          
T        Si     0.609300000000     0.962150000000     0.261000000000     0          
T        Si     0.639600000000     0.962250000000     0.330600000000     0          
T        Si     0.638850000000     0.840300000000     0.330800000000     0          
T        Si     0.538650000000     0.899800000000     0.344800000000     0          
T        Si     0.711900000000     0.903050000000     0.246000000000     0          
T        Si     0.591500000000     0.906700000000     0.244400000000     0          
T        Si     0.610000000000     0.842250000000     0.259800000000     0          
T        Si     0.538200000000     0.787400000000     0.348800000000     0          
T        Si     0.711850000000     0.807500000000     0.368300000000     0          
T        Si     0.595650000000     0.811950000000     0.365100000000     0          
T        Si     0.688300000000     0.787650000000     0.394100000000     0          
T        Si     0.656850000000     0.787000000000     0.349400000000     0          
T        Si     0.537300000000     0.812900000000     0.222900000000     0          
T        Si     0.560850000000     0.837400000000     0.329400000000     0          
T        Si     0.538000000000     0.937150000000     0.305700000000     0          
T        Si     0.655450000000     0.939300000000     0.304700000000     0          
T        Si     0.712000000000     0.938400000000     0.285800000000     0          
T        Si     0.610850000000     0.788700000000     0.391800000000     0          
T        Si     0.711550000000     0.787650000000     0.242700000000     0          
T        Si     0.596200000000     0.939950000000     0.287200000000     0          
T        Si     0.591950000000     0.787400000000     0.241600000000     0          
T        Si     0.654450000000     0.905050000000     0.470000000000     0          
T        Si     0.595500000000     0.847500000000     0.408100000000     0          
T        Si     0.654150000000     0.903800000000     0.346700000000     0          
T        Si     0.711450000000     0.851400000000     0.407200000000     0          
T        Si     0.711900000000     0.861150000000     0.286200000000     0          
T        Si     0.655000000000     0.787150000000     0.469700000000     0          
T        Si     0.538600000000     0.900550000000     0.466900000000     0          
T        Si     0.651900000000     0.891350000000     0.228600000000     0          
T        Si     0.539450000000     0.889050000000     0.224300000000     0          
T        Si     0.712050000000     0.864250000000     0.165300000000     0          
T        Si     0.538050000000     0.886400000000     0.104000000000     0          
T        Si     0.538450000000     0.850500000000     0.182900000000     0          
T        Si     0.596850000000     0.861850000000     0.286600000000     0          
T        Si     0.596100000000     0.813200000000     0.487000000000     0          
T        Si     0.562450000000     0.839000000000     0.451100000000     0          
T        Si     0.656700000000     0.843250000000     0.182900000000     0          
T        Si     0.538250000000     0.862250000000     0.426500000000     0          
T        Si     0.597300000000     0.862400000000     0.164900000000     0          
T        Si     0.655150000000     0.893900000000     0.105400000000     0          
T        Si     0.538800000000     0.788100000000     0.470600000000     0          
T        Si     0.538300000000     0.860450000000     0.304500000000     0          
T        Si     0.712600000000     0.805700000000     0.487000000000     0          
T        Si     0.653850000000     0.942500000000     0.425800000000     0          
T        Si     0.713050000000     0.907050000000     0.121300000000     0          
T        Si     0.653350000000     0.865150000000     0.425500000000     0          
T        Si     0.591900000000     0.903050000000     0.122900000000     0          
T        Si     0.711300000000     0.862200000000     0.044200000000     0          
T        Si     0.594100000000     0.962300000000     0.409400000000     0          
T        Si     0.594050000000     0.861050000000     0.042800000000     0          
T        Si     0.653150000000     0.845450000000     0.061500000000     0          
T        Si     0.595250000000     0.890250000000     0.364000000000     0          
T        Si     0.537500000000     0.844500000000     0.061200000000     0          
T        Si     0.711800000000     0.882500000000     0.364400000000     0          
T        Si     0.711250000000     0.881600000000     0.487300000000     0          
T        Si     0.712350000000     0.902950000000     0.003100000000     0          
T        Si     0.689450000000     0.841550000000     0.018300000000     0          
T        Si     0.611300000000     0.838450000000     0.017200000000     0          
T        Si     0.538950000000     0.961850000000     0.059100000000     0          
T        Si     0.594350000000     0.939200000000     0.040900000000     0          
T        Si     0.692000000000     0.908600000000     0.388900000000     0          
T        Si     0.711500000000     0.788300000000     0.124300000000     0          
T        Si     0.562000000000     0.962350000000     0.452600000000     0          
T        Si     0.654950000000     0.861700000000     0.304700000000     0          
T        Si     0.593500000000     0.891950000000     0.486800000000     0          
T        Si     0.638400000000     0.961700000000     0.452400000000     0          
T        Si     0.617100000000     0.961650000000     0.015900000000     0          
T        Si     0.711950000000     0.938550000000     0.044700000000     0          
T        Si     0.554200000000     0.905300000000     0.077600000000     0          
T        Si     0.641350000000     0.842800000000     0.452300000000     0          
T        Si     0.538650000000     0.960750000000     0.179900000000     0          
T        Si     0.693000000000     0.962050000000     0.018900000000     0          
T        Si     0.659650000000     0.815150000000     0.104900000000     0          
T        Si     0.537900000000     0.811300000000     0.103400000000     0          
T        Si     0.639900000000     0.788650000000     0.079900000000     0          
T        Si     0.650800000000     0.961450000000     0.059600000000     0          
T        Si     0.633250000000     0.904800000000     0.078200000000     0          
T        Si     0.612650000000     0.907750000000     0.390200000000     0          
T        Si     0.712200000000     0.942300000000     0.166000000000     0          
T        Si     0.599350000000     0.940150000000     0.164800000000     0          
T        Si     0.596850000000     0.788400000000     0.119000000000     0          
T        Si     0.563100000000     0.787850000000     0.078700000000     0          
T        Si     0.653150000000     0.813500000000     0.227400000000     0          
T        Si     0.686600000000     0.848250000000     0.138400000000     0          
T        Si     0.614650000000     0.963100000000     0.138300000000     0          
T        Si     0.691850000000     0.961450000000     0.139000000000     0          
T        Si     0.562850000000     0.909250000000     0.199400000000     0          
T        Si     0.607350000000     0.841200000000     0.138300000000     0          
T        Si     0.558250000000     0.787850000000     0.197700000000     0          
T        Si     0.636800000000     0.789000000000     0.200800000000     0          
T        Si     0.642400000000     0.904000000000     0.200200000000     0          
T        Si     0.562700000000     0.962050000000     0.330800000000     0          
T        Si     0.684700000000     0.962000000000     0.261000000000     0          
T        Si     0.655650000000     0.962500000000     0.183600000000     0          
T        Si     0.688750000000     0.839850000000     0.261100000000     0          
T        Si     0.711250000000     0.961750000000     0.408400000000     0          
T        Si     0.537650000000     0.938600000000     0.427600000000     0          
O        O      0.948550000000     0.853050000000     0.739600000000     0          
O        O      0.960900000000     0.904050000000     0.725200000000     0          
O        O      0.940150000000     0.914050000000     0.747800000000     0          
O        O      0.960150000000     0.845050000000     0.682800000000     0          
O        O      0.938650000000     0.839850000000     0.660200000000     0          
O        O      0.950850000000     0.898800000000     0.669600000000     0          
O        O      0.876700000000     0.856700000000     0.663300000000     0          
O        O      0.813900000000     0.840100000000     0.661300000000     0          
O        O      0.840450000000     0.847350000000     0.682900000000     0          
O        O      0.830400000000     0.899950000000     0.669100000000     0          
O        O      0.937100000000     0.957200000000     0.660300000000     0          
O        O      0.895600000000     0.939600000000     0.643000000000     0          
O        O      0.873350000000     0.948500000000     0.665100000000     0          
O        O      0.938800000000     0.792350000000     0.747500000000     0          
O        O      0.900550000000     0.812600000000     0.765500000000     0          
O        O      0.874150000000     0.797050000000     0.744400000000     0          
O        O      0.877050000000     0.900900000000     0.746200000000     0          
O        O      0.911450000000     0.877200000000     0.764600000000     0          
O        O      0.898900000000     0.941650000000     0.763300000000     0          
O        O      0.812800000000     0.909400000000     0.747100000000     0          
O        O      0.837050000000     0.850500000000     0.741500000000     0          
O        O      0.841850000000     0.900300000000     0.726000000000     0          
O        O      0.805800000000     0.940450000000     0.640800000000     0          
O        O      0.808600000000     0.959500000000     0.663600000000     0          
O        O      0.789900000000     0.792150000000     0.618700000000     0          
O        O      0.789400000000     0.811550000000     0.641600000000     0          
O        O      0.846100000000     0.798450000000     0.630800000000     0          
O        O      0.796800000000     0.904300000000     0.621400000000     0          
O        O      0.793150000000     0.876750000000     0.643000000000     0          
O        O      0.851200000000     0.896650000000     0.634600000000     0          
O        O      0.813100000000     0.795300000000     0.596400000000     0          
O        O      0.797450000000     0.850100000000     0.608000000000     0          
O        O      0.793850000000     0.962350000000     0.790000000000     0          
O        O      0.851050000000     0.951650000000     0.779000000000     0          
O        O      0.794750000000     0.938000000000     0.767700000000     0          
O        O      0.836200000000     0.949000000000     0.684800000000     0          
O        O      0.959650000000     0.952200000000     0.682700000000     0          
O        O      0.945800000000     0.938350000000     0.705700000000     0          
O        O      0.898350000000     0.958200000000     0.690900000000     0          
O        O      0.944350000000     0.809250000000     0.702000000000     0          
O        O      0.900550000000     0.850200000000     0.692300000000     0          
O        O      0.952250000000     0.873650000000     0.704200000000     0          
O        O      0.899650000000     0.789300000000     0.717900000000     0          
O        O      0.960450000000     0.802650000000     0.725200000000     0          
O        O      0.811450000000     0.907900000000     0.598200000000     0          
O        O      0.808800000000     0.792350000000     0.745000000000     0          
O        O      0.805100000000     0.809800000000     0.768000000000     0          
O        O      0.901100000000     0.899150000000     0.715900000000     0          
O        O      0.790550000000     0.873000000000     0.765400000000     0          
O        O      0.899050000000     0.810850000000     0.523100000000     0          
O        O      0.874950000000     0.852750000000     0.539300000000     0          
O        O      0.907900000000     0.875500000000     0.520400000000     0          
O        O      0.939100000000     0.842700000000     0.537700000000     0          
O        O      0.874850000000     0.895700000000     0.602100000000     0          
O        O      0.845900000000     0.875150000000     0.582000000000     0          
O        O      0.857100000000     0.939050000000     0.585400000000     0          
O        O      0.892600000000     0.811900000000     0.646800000000     0          
O        O      0.907950000000     0.875200000000     0.643500000000     0          
O        O      0.861550000000     0.811550000000     0.581400000000     0          
O        O      0.875100000000     0.797000000000     0.604200000000     0          
O        O      0.856250000000     0.809150000000     0.701500000000     0          
O        O      0.839000000000     0.804550000000     0.724400000000     0          
O        O      0.786100000000     0.811450000000     0.522300000000     0          
O        O      0.811400000000     0.839750000000     0.541700000000     0          
O        O      0.800300000000     0.875450000000     0.522100000000     0          
O        O      0.897650000000     0.940300000000     0.520700000000     0          
O        O      0.874150000000     0.947700000000     0.542900000000     0          
O        O      0.937700000000     0.958000000000     0.538500000000     0          
O        O      0.900950000000     0.848350000000     0.785600000000     0          
O        O      0.852050000000     0.854950000000     0.770000000000     0          
O        O      0.912600000000     0.947950000000     0.786600000000     0          
O        O      0.844050000000     0.809100000000     0.824700000000     0          
O        O      0.859250000000     0.804500000000     0.847900000000     0          
O        O      0.903050000000     0.788400000000     0.831100000000     0          
O        O      0.905500000000     0.939750000000     0.886100000000     0          
O        O      0.848900000000     0.948550000000     0.897700000000     0          
O        O      0.906200000000     0.959650000000     0.908700000000     0          
O        O      0.858750000000     0.938500000000     0.828700000000     0          
O        O      0.875950000000     0.953500000000     0.806200000000     0          
O        O      0.812900000000     0.954650000000     0.812700000000     0          
O        O      0.854800000000     0.938900000000     0.707300000000     0          
O        O      0.849600000000     0.873950000000     0.704400000000     0          
O        O      0.794600000000     0.900400000000     0.500100000000     0          
O        O      0.852750000000     0.900250000000     0.511200000000     0          
O        O      0.804800000000     0.939950000000     0.518600000000     0          
O        O      0.837750000000     0.949500000000     0.562800000000     0          
O        O      0.834500000000     0.897750000000     0.548400000000     0          
O        O      0.808900000000     0.955200000000     0.541700000000     0          
O        O      0.872250000000     0.843300000000     0.807000000000     0          
O        O      0.848400000000     0.874250000000     0.826200000000     0          
O        O      0.807450000000     0.846550000000     0.810600000000     0          
O        O      0.900000000000     0.958500000000     0.568800000000     0          
O        O      0.841300000000     0.902400000000     0.847500000000     0          
O        O      0.901100000000     0.896000000000     0.838000000000     0          
O        O      0.913400000000     0.812350000000     0.889800000000     0          
O        O      0.854950000000     0.835750000000     0.895200000000     0          
O        O      0.907400000000     0.855100000000     0.907800000000     0          
O        O      0.900050000000     0.874600000000     0.885000000000     0          
O        O      0.843400000000     0.800250000000     0.511400000000     0          
O        O      0.957700000000     0.844000000000     0.560600000000     0          
O        O      0.903850000000     0.856500000000     0.573400000000     0          
O        O      0.945950000000     0.810550000000     0.580700000000     0          
O        O      0.962450000000     0.873700000000     0.581900000000     0          
O        O      0.875150000000     0.798650000000     0.871000000000     0          
O        O      0.939450000000     0.785750000000     0.870100000000     0          
O        O      0.849350000000     0.843850000000     0.561100000000     0          
O        O      0.936000000000     0.907500000000     0.868800000000     0          
O        O      0.870950000000     0.912000000000     0.868500000000     0          
O        O      0.846800000000     0.811050000000     0.945100000000     0          
O        O      0.841600000000     0.795650000000     0.968100000000     0          
O        O      0.900600000000     0.798750000000     0.957800000000     0          
O        O      0.896450000000     0.937800000000     0.005300000000     0          
O        O      0.894800000000     0.873800000000     0.010600000000     0          
O        O      0.940400000000     0.898900000000     0.602500000000     0          
O        O      0.947050000000     0.937250000000     0.583400000000     0          
O        O      0.855000000000     0.941100000000     0.950600000000     0          
O        O      0.899650000000     0.902000000000     0.960900000000     0          
O        O      0.839000000000     0.904900000000     0.969500000000     0          
O        O      0.850600000000     0.875950000000     0.948400000000     0          
O        O      0.814450000000     0.790800000000     0.989600000000     0          
O        O      0.809600000000     0.851150000000     0.932200000000     0          
O        O      0.873950000000     0.848300000000     0.928200000000     0          
O        O      0.906400000000     0.906700000000     0.622600000000     0          
O        O      0.875550000000     0.964100000000     0.929600000000     0          
O        O      0.813050000000     0.945600000000     0.932200000000     0          
O        O      0.908650000000     0.792450000000     0.624600000000     0          
O        O      0.905000000000     0.808800000000     0.009300000000     0          
O        O      0.877650000000     0.805750000000     0.987700000000     0          
O        O      0.939000000000     0.786700000000     0.990500000000     0          
O        O      0.831800000000     0.849400000000     0.981400000000     0          
O        O      0.940350000000     0.953700000000     0.928900000000     0          
O        O      0.947050000000     0.940050000000     0.952100000000     0          
O        O      0.957050000000     0.905900000000     0.972200000000     0          
O        O      0.953150000000     0.874850000000     0.951200000000     0          
O        O      0.940800000000     0.794850000000     0.603800000000     0          
O        O      0.909850000000     0.847900000000     0.612200000000     0          
O        O      0.797900000000     0.811650000000     0.887100000000     0          
O        O      0.812300000000     0.797550000000     0.864500000000     0          
O        O      0.961500000000     0.954350000000     0.560800000000     0          
O        O      0.950150000000     0.899900000000     0.548400000000     0          
O        O      0.950800000000     0.845400000000     0.980700000000     0          
O        O      0.954350000000     0.811850000000     0.945000000000     0          
O        O      0.959450000000     0.791150000000     0.967700000000     0          
O        O      0.898800000000     0.906300000000     0.922300000000     0          
O        O      0.941150000000     0.950500000000     0.808000000000     0          
O        O      0.947850000000     0.938400000000     0.831200000000     0          
O        O      0.801700000000     0.838000000000     0.908900000000     0          
O        O      0.806350000000     0.876400000000     0.889700000000     0          
O        O      0.790700000000     0.939350000000     0.887200000000     0          
O        O      0.794300000000     0.960950000000     0.909900000000     0          
O        O      0.793350000000     0.898950000000     0.917000000000     0          
O        O      0.938650000000     0.857400000000     0.928800000000     0          
O        O      0.961600000000     0.810500000000     0.824200000000     0          
O        O      0.948550000000     0.802750000000     0.847400000000     0          
O        O      0.960800000000     0.891850000000     0.847300000000     0          
O        O      0.951200000000     0.875500000000     0.824600000000     0          
O        O      0.806550000000     0.903450000000     0.867900000000     0          
O        O      0.805900000000     0.849100000000     0.786900000000     0          
O        O      0.846400000000     0.853150000000     0.863200000000     0          
O        O      0.956800000000     0.846650000000     0.864700000000     0          
O        O      0.906500000000     0.897300000000     0.801500000000     0          
O        O      0.794250000000     0.902850000000     0.799700000000     0          
O        O      0.937450000000     0.840850000000     0.805100000000     0          
T        Si     0.962150000000     0.890700000000     0.739000000000     0          
T        Si     0.962250000000     0.860400000000     0.669400000000     0          
T        Si     0.840300000000     0.861150000000     0.669200000000     0          
T        Si     0.899800000000     0.961350000000     0.655200000000     0          
T        Si     0.903050000000     0.788100000000     0.754000000000     0          
T        Si     0.906700000000     0.908500000000     0.755600000000     0          
T        Si     0.842250000000     0.890000000000     0.740200000000     0          
T        Si     0.787400000000     0.961800000000     0.651200000000     0          
T        Si     0.807500000000     0.788150000000     0.631700000000     0          
T        Si     0.811950000000     0.904350000000     0.634900000000     0          
T        Si     0.787650000000     0.811700000000     0.605900000000     0          
T        Si     0.787000000000     0.843150000000     0.650600000000     0          
T        Si     0.812900000000     0.962700000000     0.777100000000     0          
T        Si     0.837400000000     0.939150000000     0.670600000000     0          
T        Si     0.937150000000     0.962000000000     0.694300000000     0          
T        Si     0.939300000000     0.844550000000     0.695300000000     0          
T        Si     0.938400000000     0.788000000000     0.714200000000     0          
T        Si     0.788700000000     0.889150000000     0.608200000000     0          
T        Si     0.787650000000     0.788450000000     0.757300000000     0          
T        Si     0.939950000000     0.903800000000     0.712800000000     0          
T        Si     0.787400000000     0.908050000000     0.758400000000     0          
T        Si     0.905050000000     0.845550000000     0.530000000000     0          
T        Si     0.847500000000     0.904500000000     0.591900000000     0          
T        Si     0.903800000000     0.845850000000     0.653300000000     0          
T        Si     0.851400000000     0.788550000000     0.592800000000     0          
T        Si     0.861150000000     0.788100000000     0.713800000000     0          
T        Si     0.787150000000     0.845000000000     0.530300000000     0          
T        Si     0.900550000000     0.961400000000     0.533100000000     0          
T        Si     0.891350000000     0.848100000000     0.771400000000     0          
T        Si     0.889050000000     0.960550000000     0.775700000000     0          
T        Si     0.864250000000     0.787950000000     0.834700000000     0          
T        Si     0.886400000000     0.961950000000     0.896000000000     0          
T        Si     0.850500000000     0.961550000000     0.817100000000     0          
T        Si     0.861850000000     0.903150000000     0.713400000000     0          
T        Si     0.813200000000     0.903900000000     0.513000000000     0          
T        Si     0.839000000000     0.937550000000     0.548900000000     0          
T        Si     0.843250000000     0.843300000000     0.817100000000     0          
T        Si     0.862250000000     0.961750000000     0.573500000000     0          
T        Si     0.862400000000     0.902700000000     0.835100000000     0          
T        Si     0.893900000000     0.844850000000     0.894600000000     0          
T        Si     0.788100000000     0.961200000000     0.529400000000     0          
T        Si     0.860450000000     0.961700000000     0.695500000000     0          
T        Si     0.805700000000     0.787400000000     0.513000000000     0          
T        Si     0.942500000000     0.846150000000     0.574200000000     0          
T        Si     0.907050000000     0.786950000000     0.878700000000     0          
T        Si     0.865150000000     0.846650000000     0.574500000000     0          
T        Si     0.903050000000     0.908100000000     0.877100000000     0          
T        Si     0.862200000000     0.788700000000     0.955800000000     0          
T        Si     0.962300000000     0.905900000000     0.590600000000     0          
T        Si     0.861050000000     0.905950000000     0.957200000000     0          
T        Si     0.845450000000     0.846850000000     0.938500000000     0          
T        Si     0.890250000000     0.904750000000     0.636000000000     0          
T        Si     0.844500000000     0.962500000000     0.938800000000     0          
T        Si     0.882500000000     0.788200000000     0.635600000000     0          
T        Si     0.881600000000     0.788750000000     0.512700000000     0          
T        Si     0.902950000000     0.787650000000     0.996900000000     0          
T        Si     0.841550000000     0.810550000000     0.981700000000     0          
T        Si     0.838450000000     0.888700000000     0.982800000000     0          
T        Si     0.961850000000     0.961050000000     0.940900000000     0          
T        Si     0.939200000000     0.905650000000     0.959100000000     0          
T        Si     0.908600000000     0.808000000000     0.611100000000     0          
T        Si     0.788300000000     0.788500000000     0.875700000000     0          
T        Si     0.962350000000     0.938000000000     0.547400000000     0          
T        Si     0.861700000000     0.845050000000     0.695300000000     0          
T        Si     0.891950000000     0.906500000000     0.513200000000     0          
T        Si     0.961700000000     0.861600000000     0.547600000000     0          
T        Si     0.961650000000     0.882900000000     0.984100000000     0          
T        Si     0.938550000000     0.788050000000     0.955300000000     0          
T        Si     0.905300000000     0.945800000000     0.922400000000     0          
T        Si     0.842800000000     0.858650000000     0.547700000000     0          
T        Si     0.960750000000     0.961350000000     0.820100000000     0          
T        Si     0.962050000000     0.807000000000     0.981100000000     0          
T        Si     0.815150000000     0.840350000000     0.895100000000     0          
T        Si     0.811300000000     0.962100000000     0.896600000000     0          
T        Si     0.788650000000     0.860100000000     0.920100000000     0          
T        Si     0.961450000000     0.849200000000     0.940400000000     0          
T        Si     0.904800000000     0.866750000000     0.921800000000     0          
T        Si     0.907750000000     0.887350000000     0.609800000000     0          
T        Si     0.942300000000     0.787800000000     0.834000000000     0          
T        Si     0.940150000000     0.900650000000     0.835200000000     0          
T        Si     0.788400000000     0.903150000000     0.881000000000     0          
T        Si     0.787850000000     0.936900000000     0.921300000000     0          
T        Si     0.813500000000     0.846850000000     0.772600000000     0          
T        Si     0.848250000000     0.813400000000     0.861600000000     0          
T        Si     0.963100000000     0.885350000000     0.861700000000     0          
T        Si     0.961450000000     0.808150000000     0.861000000000     0          
T        Si     0.909250000000     0.937150000000     0.800600000000     0          
T        Si     0.841200000000     0.892650000000     0.861700000000     0          
T        Si     0.787850000000     0.941750000000     0.802300000000     0          
T        Si     0.789000000000     0.863200000000     0.799200000000     0          
T        Si     0.904000000000     0.857600000000     0.799800000000     0          
T        Si     0.962050000000     0.937300000000     0.669200000000     0          
T        Si     0.962000000000     0.815300000000     0.739000000000     0          
T        Si     0.962500000000     0.844350000000     0.816400000000     0          
T        Si     0.839850000000     0.811250000000     0.738900000000     0          
T        Si     0.961750000000     0.788750000000     0.591600000000     0          
T        Si     0.938600000000     0.962350000000     0.572400000000     0          


