data_zeolite

_audit_creation_method RASPA-1.0
_audit_creation_date 2022-1-5
_audit_author_name ''

_cell_length_a    12.632
_cell_length_b    12.632
_cell_length_c    26.186
_cell_angle_alpha 90
_cell_angle_beta  90
_cell_angle_gamma 90
_cell_volume      37605.9

_symmetry_cell_setting          tetragonal
_symmetry_space_group_name_Hall 'P 1'
_symmetry_space_group_name_H-M  'P 1'
_symmetry_Int_Tables_number     1

_symmetry_equiv_pos_as_xyz 'x,y,z'

loop_
_atom_site_label
_atom_site_type_symbol
_atom_site_fract_x
_atom_site_fract_y
_atom_site_fract_z
_atom_site_charge
T        Si     0.317633333333     0.265333333333     0.055200000000     0          
T        Si     0.317866666667     0.180966666667     0.055300000000     0          
T        Si     0.238200000000     0.264033333333     0.058400000000     0          
T        Si     0.238500000000     0.181700000000     0.059000000000     0          
T        Si     0.110600000000     0.262800000000     0.059100000000     0          
T        Si     0.110966666667     0.180300000000     0.058400000000     0          
T        Si     0.175733333333     0.286466666667     0.125600000000     0          
T        Si     0.175733333333     0.157600000000     0.125000000000     0          
T        Si     0.046366666667     0.286966666667     0.125000000000     0          
T        Si     0.068000000000     0.317633333333     0.305200000000     0          
T        Si     0.152366666667     0.317866666667     0.305300000000     0          
T        Si     0.069300000000     0.238200000000     0.308400000000     0          
T        Si     0.151633333333     0.238500000000     0.309000000000     0          
T        Si     0.070533333333     0.110600000000     0.309100000000     0          
T        Si     0.153033333333     0.110966666667     0.308400000000     0          
T        Si     0.046866666667     0.175733333333     0.375600000000     0          
T        Si     0.175733333333     0.175733333333     0.375000000000     0          
T        Si     0.046366666667     0.046366666667     0.375000000000     0          
T        Si     0.015700000000     0.068000000000     0.555200000000     0          
T        Si     0.015466666667     0.152366666667     0.555300000000     0          
T        Si     0.095133333333     0.069300000000     0.558400000000     0          
T        Si     0.094833333333     0.151633333333     0.559000000000     0          
T        Si     0.222733333333     0.070533333333     0.559100000000     0          
T        Si     0.222366666667     0.153033333333     0.558400000000     0          
T        Si     0.157600000000     0.046866666667     0.625600000000     0          
T        Si     0.157600000000     0.175733333333     0.625000000000     0          
T        Si     0.286966666667     0.046366666667     0.625000000000     0          
T        Si     0.265333333333     0.015700000000     0.805200000000     0          
T        Si     0.180966666667     0.015466666667     0.805300000000     0          
T        Si     0.264033333333     0.095133333333     0.808400000000     0          
T        Si     0.181700000000     0.094833333333     0.809000000000     0          
T        Si     0.262800000000     0.222733333333     0.809100000000     0          
T        Si     0.180300000000     0.222366666667     0.808400000000     0          
T        Si     0.286466666667     0.157600000000     0.875600000000     0          
T        Si     0.157600000000     0.157600000000     0.875000000000     0          
T        Si     0.286966666667     0.286966666667     0.875000000000     0          
T        Si     0.317633333333     0.068000000000     0.444800000000     0          
T        Si     0.317866666667     0.152366666667     0.444700000000     0          
T        Si     0.238200000000     0.069300000000     0.441600000000     0          
T        Si     0.238500000000     0.151633333333     0.441000000000     0          
T        Si     0.110600000000     0.070533333333     0.440900000000     0          
T        Si     0.110966666667     0.153033333333     0.441600000000     0          
T        Si     0.175733333333     0.046866666667     0.374400000000     0          
T        Si     0.265333333333     0.317633333333     0.694800000000     0          
T        Si     0.180966666667     0.317866666667     0.694700000000     0          
T        Si     0.264033333333     0.238200000000     0.691600000000     0          
T        Si     0.181700000000     0.238500000000     0.691000000000     0          
T        Si     0.262800000000     0.110600000000     0.690900000000     0          
T        Si     0.180300000000     0.110966666667     0.691600000000     0          
T        Si     0.286466666667     0.175733333333     0.624400000000     0          
T        Si     0.015700000000     0.265333333333     0.944800000000     0          
T        Si     0.015466666667     0.180966666667     0.944700000000     0          
T        Si     0.095133333333     0.264033333333     0.941600000000     0          
T        Si     0.094833333333     0.181700000000     0.941000000000     0          
T        Si     0.222733333333     0.262800000000     0.940900000000     0          
T        Si     0.222366666667     0.180300000000     0.941600000000     0          
T        Si     0.157600000000     0.286466666667     0.874400000000     0          
T        Si     0.068000000000     0.015700000000     0.194800000000     0          
T        Si     0.152366666667     0.015466666667     0.194700000000     0          
T        Si     0.069300000000     0.095133333333     0.191600000000     0          
T        Si     0.151633333333     0.094833333333     0.191000000000     0          
T        Si     0.070533333333     0.222733333333     0.190900000000     0          
T        Si     0.153033333333     0.222366666667     0.191600000000     0          
T        Si     0.046866666667     0.157600000000     0.124400000000     0          
T        Si     0.317633333333     0.598666666667     0.055200000000     0          
T        Si     0.317866666667     0.514300000000     0.055300000000     0          
T        Si     0.238200000000     0.597366666667     0.058400000000     0          
T        Si     0.238500000000     0.515033333333     0.059000000000     0          
T        Si     0.110600000000     0.596133333333     0.059100000000     0          
T        Si     0.110966666667     0.513633333333     0.058400000000     0          
T        Si     0.175733333333     0.619800000000     0.125600000000     0          
T        Si     0.175733333333     0.490933333333     0.125000000000     0          
T        Si     0.046366666667     0.620300000000     0.125000000000     0          
T        Si     0.068000000000     0.650966666667     0.305200000000     0          
T        Si     0.152366666667     0.651200000000     0.305300000000     0          
T        Si     0.069300000000     0.571533333333     0.308400000000     0          
T        Si     0.151633333333     0.571833333333     0.309000000000     0          
T        Si     0.070533333333     0.443933333333     0.309100000000     0          
T        Si     0.153033333333     0.444300000000     0.308400000000     0          
T        Si     0.046866666667     0.509066666667     0.375600000000     0          
T        Si     0.175733333333     0.509066666667     0.375000000000     0          
T        Si     0.046366666667     0.379700000000     0.375000000000     0          
T        Si     0.015700000000     0.401333333333     0.555200000000     0          
T        Si     0.015466666667     0.485700000000     0.555300000000     0          
T        Si     0.095133333333     0.402633333333     0.558400000000     0          
T        Si     0.094833333333     0.484966666667     0.559000000000     0          
T        Si     0.222733333333     0.403866666667     0.559100000000     0          
T        Si     0.222366666667     0.486366666667     0.558400000000     0          
T        Si     0.157600000000     0.380200000000     0.625600000000     0          
T        Si     0.157600000000     0.509066666667     0.625000000000     0          
T        Si     0.286966666667     0.379700000000     0.625000000000     0          
T        Si     0.265333333333     0.349033333333     0.805200000000     0          
T        Si     0.180966666667     0.348800000000     0.805300000000     0          
T        Si     0.264033333333     0.428466666667     0.808400000000     0          
T        Si     0.181700000000     0.428166666667     0.809000000000     0          
T        Si     0.262800000000     0.556066666667     0.809100000000     0          
T        Si     0.180300000000     0.555700000000     0.808400000000     0          
T        Si     0.286466666667     0.490933333333     0.875600000000     0          
T        Si     0.157600000000     0.490933333333     0.875000000000     0          
T        Si     0.286966666667     0.620300000000     0.875000000000     0          
T        Si     0.317633333333     0.401333333333     0.444800000000     0          
T        Si     0.317866666667     0.485700000000     0.444700000000     0          
T        Si     0.238200000000     0.402633333333     0.441600000000     0          
T        Si     0.238500000000     0.484966666667     0.441000000000     0          
T        Si     0.110600000000     0.403866666667     0.440900000000     0          
T        Si     0.110966666667     0.486366666667     0.441600000000     0          
T        Si     0.175733333333     0.380200000000     0.374400000000     0          
T        Si     0.265333333333     0.650966666667     0.694800000000     0          
T        Si     0.180966666667     0.651200000000     0.694700000000     0          
T        Si     0.264033333333     0.571533333333     0.691600000000     0          
T        Si     0.181700000000     0.571833333333     0.691000000000     0          
T        Si     0.262800000000     0.443933333333     0.690900000000     0          
T        Si     0.180300000000     0.444300000000     0.691600000000     0          
T        Si     0.286466666667     0.509066666667     0.624400000000     0          
T        Si     0.015700000000     0.598666666667     0.944800000000     0          
T        Si     0.015466666667     0.514300000000     0.944700000000     0          
T        Si     0.095133333333     0.597366666667     0.941600000000     0          
T        Si     0.094833333333     0.515033333333     0.941000000000     0          
T        Si     0.222733333333     0.596133333333     0.940900000000     0          
T        Si     0.222366666667     0.513633333333     0.941600000000     0          
T        Si     0.157600000000     0.619800000000     0.874400000000     0          
T        Si     0.068000000000     0.349033333333     0.194800000000     0          
T        Si     0.152366666667     0.348800000000     0.194700000000     0          
T        Si     0.069300000000     0.428466666667     0.191600000000     0          
T        Si     0.151633333333     0.428166666667     0.191000000000     0          
T        Si     0.070533333333     0.556066666667     0.190900000000     0          
T        Si     0.153033333333     0.555700000000     0.191600000000     0          
T        Si     0.046866666667     0.490933333333     0.124400000000     0          
T        Si     0.317633333333     0.932000000000     0.055200000000     0          
T        Si     0.317866666667     0.847633333333     0.055300000000     0          
T        Si     0.238200000000     0.930700000000     0.058400000000     0          
T        Si     0.238500000000     0.848366666667     0.059000000000     0          
T        Si     0.110600000000     0.929466666667     0.059100000000     0          
T        Si     0.110966666667     0.846966666667     0.058400000000     0          
T        Si     0.175733333333     0.953133333333     0.125600000000     0          
T        Si     0.175733333333     0.824266666667     0.125000000000     0          
T        Si     0.046366666667     0.953633333333     0.125000000000     0          
T        Si     0.068000000000     0.984300000000     0.305200000000     0          
T        Si     0.152366666667     0.984533333333     0.305300000000     0          
T        Si     0.069300000000     0.904866666667     0.308400000000     0          
T        Si     0.151633333333     0.905166666667     0.309000000000     0          
T        Si     0.070533333333     0.777266666667     0.309100000000     0          
T        Si     0.153033333333     0.777633333333     0.308400000000     0          
T        Si     0.046866666667     0.842400000000     0.375600000000     0          
T        Si     0.175733333333     0.842400000000     0.375000000000     0          
T        Si     0.046366666667     0.713033333333     0.375000000000     0          
T        Si     0.015700000000     0.734666666667     0.555200000000     0          
T        Si     0.015466666667     0.819033333333     0.555300000000     0          
T        Si     0.095133333333     0.735966666667     0.558400000000     0          
T        Si     0.094833333333     0.818300000000     0.559000000000     0          
T        Si     0.222733333333     0.737200000000     0.559100000000     0          
T        Si     0.222366666667     0.819700000000     0.558400000000     0          
T        Si     0.157600000000     0.713533333333     0.625600000000     0          
T        Si     0.157600000000     0.842400000000     0.625000000000     0          
T        Si     0.286966666667     0.713033333333     0.625000000000     0          
T        Si     0.265333333333     0.682366666667     0.805200000000     0          
T        Si     0.180966666667     0.682133333333     0.805300000000     0          
T        Si     0.264033333333     0.761800000000     0.808400000000     0          
T        Si     0.181700000000     0.761500000000     0.809000000000     0          
T        Si     0.262800000000     0.889400000000     0.809100000000     0          
T        Si     0.180300000000     0.889033333333     0.808400000000     0          
T        Si     0.286466666667     0.824266666667     0.875600000000     0          
T        Si     0.157600000000     0.824266666667     0.875000000000     0          
T        Si     0.286966666667     0.953633333333     0.875000000000     0          
T        Si     0.317633333333     0.734666666667     0.444800000000     0          
T        Si     0.317866666667     0.819033333333     0.444700000000     0          
T        Si     0.238200000000     0.735966666667     0.441600000000     0          
T        Si     0.238500000000     0.818300000000     0.441000000000     0          
T        Si     0.110600000000     0.737200000000     0.440900000000     0          
T        Si     0.110966666667     0.819700000000     0.441600000000     0          
T        Si     0.175733333333     0.713533333333     0.374400000000     0          
T        Si     0.265333333333     0.984300000000     0.694800000000     0          
T        Si     0.180966666667     0.984533333333     0.694700000000     0          
T        Si     0.264033333333     0.904866666667     0.691600000000     0          
T        Si     0.181700000000     0.905166666667     0.691000000000     0          
T        Si     0.262800000000     0.777266666667     0.690900000000     0          
T        Si     0.180300000000     0.777633333333     0.691600000000     0          
T        Si     0.286466666667     0.842400000000     0.624400000000     0          
T        Si     0.015700000000     0.932000000000     0.944800000000     0          
T        Si     0.015466666667     0.847633333333     0.944700000000     0          
T        Si     0.095133333333     0.930700000000     0.941600000000     0          
T        Si     0.094833333333     0.848366666667     0.941000000000     0          
T        Si     0.222733333333     0.929466666667     0.940900000000     0          
T        Si     0.222366666667     0.846966666667     0.941600000000     0          
T        Si     0.157600000000     0.953133333333     0.874400000000     0          
T        Si     0.068000000000     0.682366666667     0.194800000000     0          
T        Si     0.152366666667     0.682133333333     0.194700000000     0          
T        Si     0.069300000000     0.761800000000     0.191600000000     0          
T        Si     0.151633333333     0.761500000000     0.191000000000     0          
T        Si     0.070533333333     0.889400000000     0.190900000000     0          
T        Si     0.153033333333     0.889033333333     0.191600000000     0          
T        Si     0.046866666667     0.824266666667     0.124400000000     0          
T        Si     0.650966666667     0.265333333333     0.055200000000     0          
T        Si     0.651200000000     0.180966666667     0.055300000000     0          
T        Si     0.571533333333     0.264033333333     0.058400000000     0          
T        Si     0.571833333333     0.181700000000     0.059000000000     0          
T        Si     0.443933333333     0.262800000000     0.059100000000     0          
T        Si     0.444300000000     0.180300000000     0.058400000000     0          
T        Si     0.509066666667     0.286466666667     0.125600000000     0          
T        Si     0.509066666667     0.157600000000     0.125000000000     0          
T        Si     0.379700000000     0.286966666667     0.125000000000     0          
T        Si     0.401333333333     0.317633333333     0.305200000000     0          
T        Si     0.485700000000     0.317866666667     0.305300000000     0          
T        Si     0.402633333333     0.238200000000     0.308400000000     0          
T        Si     0.484966666667     0.238500000000     0.309000000000     0          
T        Si     0.403866666667     0.110600000000     0.309100000000     0          
T        Si     0.486366666667     0.110966666667     0.308400000000     0          
T        Si     0.380200000000     0.175733333333     0.375600000000     0          
T        Si     0.509066666667     0.175733333333     0.375000000000     0          
T        Si     0.379700000000     0.046366666667     0.375000000000     0          
T        Si     0.349033333333     0.068000000000     0.555200000000     0          
T        Si     0.348800000000     0.152366666667     0.555300000000     0          
T        Si     0.428466666667     0.069300000000     0.558400000000     0          
T        Si     0.428166666667     0.151633333333     0.559000000000     0          
T        Si     0.556066666667     0.070533333333     0.559100000000     0          
T        Si     0.555700000000     0.153033333333     0.558400000000     0          
T        Si     0.490933333333     0.046866666667     0.625600000000     0          
T        Si     0.490933333333     0.175733333333     0.625000000000     0          
T        Si     0.620300000000     0.046366666667     0.625000000000     0          
T        Si     0.598666666667     0.015700000000     0.805200000000     0          
T        Si     0.514300000000     0.015466666667     0.805300000000     0          
T        Si     0.597366666667     0.095133333333     0.808400000000     0          
T        Si     0.515033333333     0.094833333333     0.809000000000     0          
T        Si     0.596133333333     0.222733333333     0.809100000000     0          
T        Si     0.513633333333     0.222366666667     0.808400000000     0          
T        Si     0.619800000000     0.157600000000     0.875600000000     0          
T        Si     0.490933333333     0.157600000000     0.875000000000     0          
T        Si     0.620300000000     0.286966666667     0.875000000000     0          
T        Si     0.650966666667     0.068000000000     0.444800000000     0          
T        Si     0.651200000000     0.152366666667     0.444700000000     0          
T        Si     0.571533333333     0.069300000000     0.441600000000     0          
T        Si     0.571833333333     0.151633333333     0.441000000000     0          
T        Si     0.443933333333     0.070533333333     0.440900000000     0          
T        Si     0.444300000000     0.153033333333     0.441600000000     0          
T        Si     0.509066666667     0.046866666667     0.374400000000     0          
T        Si     0.598666666667     0.317633333333     0.694800000000     0          
T        Si     0.514300000000     0.317866666667     0.694700000000     0          
T        Si     0.597366666667     0.238200000000     0.691600000000     0          
T        Si     0.515033333333     0.238500000000     0.691000000000     0          
T        Si     0.596133333333     0.110600000000     0.690900000000     0          
T        Si     0.513633333333     0.110966666667     0.691600000000     0          
T        Si     0.619800000000     0.175733333333     0.624400000000     0          
T        Si     0.349033333333     0.265333333333     0.944800000000     0          
T        Si     0.348800000000     0.180966666667     0.944700000000     0          
T        Si     0.428466666667     0.264033333333     0.941600000000     0          
T        Si     0.428166666667     0.181700000000     0.941000000000     0          
T        Si     0.556066666667     0.262800000000     0.940900000000     0          
T        Si     0.555700000000     0.180300000000     0.941600000000     0          
T        Si     0.490933333333     0.286466666667     0.874400000000     0          
T        Si     0.401333333333     0.015700000000     0.194800000000     0          
T        Si     0.485700000000     0.015466666667     0.194700000000     0          
T        Si     0.402633333333     0.095133333333     0.191600000000     0          
T        Si     0.484966666667     0.094833333333     0.191000000000     0          
T        Si     0.403866666667     0.222733333333     0.190900000000     0          
T        Si     0.486366666667     0.222366666667     0.191600000000     0          
T        Si     0.380200000000     0.157600000000     0.124400000000     0          
T        Si     0.650966666667     0.598666666667     0.055200000000     0          
T        Si     0.651200000000     0.514300000000     0.055300000000     0          
T        Si     0.571533333333     0.597366666667     0.058400000000     0          
T        Si     0.571833333333     0.515033333333     0.059000000000     0          
T        Si     0.443933333333     0.596133333333     0.059100000000     0          
T        Si     0.444300000000     0.513633333333     0.058400000000     0          
T        Si     0.509066666667     0.619800000000     0.125600000000     0          
T        Si     0.509066666667     0.490933333333     0.125000000000     0          
T        Si     0.379700000000     0.620300000000     0.125000000000     0          
T        Si     0.401333333333     0.650966666667     0.305200000000     0          
T        Si     0.485700000000     0.651200000000     0.305300000000     0          
T        Si     0.402633333333     0.571533333333     0.308400000000     0          
T        Si     0.484966666667     0.571833333333     0.309000000000     0          
T        Si     0.403866666667     0.443933333333     0.309100000000     0          
T        Si     0.486366666667     0.444300000000     0.308400000000     0          
T        Si     0.380200000000     0.509066666667     0.375600000000     0          
T        Si     0.509066666667     0.509066666667     0.375000000000     0          
T        Si     0.379700000000     0.379700000000     0.375000000000     0          
T        Si     0.349033333333     0.401333333333     0.555200000000     0          
T        Si     0.348800000000     0.485700000000     0.555300000000     0          
T        Si     0.428466666667     0.402633333333     0.558400000000     0          
T        Si     0.428166666667     0.484966666667     0.559000000000     0          
T        Si     0.556066666667     0.403866666667     0.559100000000     0          
T        Si     0.555700000000     0.486366666667     0.558400000000     0          
T        Si     0.490933333333     0.380200000000     0.625600000000     0          
T        Si     0.490933333333     0.509066666667     0.625000000000     0          
T        Si     0.620300000000     0.379700000000     0.625000000000     0          
T        Si     0.598666666667     0.349033333333     0.805200000000     0          
T        Si     0.514300000000     0.348800000000     0.805300000000     0          
T        Si     0.597366666667     0.428466666667     0.808400000000     0          
T        Si     0.515033333333     0.428166666667     0.809000000000     0          
T        Si     0.596133333333     0.556066666667     0.809100000000     0          
T        Si     0.513633333333     0.555700000000     0.808400000000     0          
T        Si     0.619800000000     0.490933333333     0.875600000000     0          
T        Si     0.490933333333     0.490933333333     0.875000000000     0          
T        Si     0.620300000000     0.620300000000     0.875000000000     0          
T        Si     0.650966666667     0.401333333333     0.444800000000     0          
T        Si     0.651200000000     0.485700000000     0.444700000000     0          
T        Si     0.571533333333     0.402633333333     0.441600000000     0          
T        Si     0.571833333333     0.484966666667     0.441000000000     0          
T        Si     0.443933333333     0.403866666667     0.440900000000     0          
T        Si     0.444300000000     0.486366666667     0.441600000000     0          
T        Si     0.509066666667     0.380200000000     0.374400000000     0          
T        Si     0.598666666667     0.650966666667     0.694800000000     0          
T        Si     0.514300000000     0.651200000000     0.694700000000     0          
T        Si     0.597366666667     0.571533333333     0.691600000000     0          
T        Si     0.515033333333     0.571833333333     0.691000000000     0          
T        Si     0.596133333333     0.443933333333     0.690900000000     0          
T        Si     0.513633333333     0.444300000000     0.691600000000     0          
T        Si     0.619800000000     0.509066666667     0.624400000000     0          
T        Si     0.349033333333     0.598666666667     0.944800000000     0          
T        Si     0.348800000000     0.514300000000     0.944700000000     0          
T        Si     0.428466666667     0.597366666667     0.941600000000     0          
T        Si     0.428166666667     0.515033333333     0.941000000000     0          
T        Si     0.556066666667     0.596133333333     0.940900000000     0          
T        Si     0.555700000000     0.513633333333     0.941600000000     0          
T        Si     0.490933333333     0.619800000000     0.874400000000     0          
T        Si     0.401333333333     0.349033333333     0.194800000000     0          
T        Si     0.485700000000     0.348800000000     0.194700000000     0          
T        Si     0.402633333333     0.428466666667     0.191600000000     0          
T        Si     0.484966666667     0.428166666667     0.191000000000     0          
T        Si     0.403866666667     0.556066666667     0.190900000000     0          
T        Si     0.486366666667     0.555700000000     0.191600000000     0          
T        Si     0.380200000000     0.490933333333     0.124400000000     0          
T        Si     0.650966666667     0.932000000000     0.055200000000     0          
T        Si     0.651200000000     0.847633333333     0.055300000000     0          
T        Si     0.571533333333     0.930700000000     0.058400000000     0          
T        Si     0.571833333333     0.848366666667     0.059000000000     0          
T        Si     0.443933333333     0.929466666667     0.059100000000     0          
T        Si     0.444300000000     0.846966666667     0.058400000000     0          
T        Si     0.509066666667     0.953133333333     0.125600000000     0          
T        Si     0.509066666667     0.824266666667     0.125000000000     0          
T        Si     0.379700000000     0.953633333333     0.125000000000     0          
T        Si     0.401333333333     0.984300000000     0.305200000000     0          
T        Si     0.485700000000     0.984533333333     0.305300000000     0          
T        Si     0.402633333333     0.904866666667     0.308400000000     0          
T        Si     0.484966666667     0.905166666667     0.309000000000     0          
T        Si     0.403866666667     0.777266666667     0.309100000000     0          
T        Si     0.486366666667     0.777633333333     0.308400000000     0          
T        Si     0.380200000000     0.842400000000     0.375600000000     0          
T        Si     0.509066666667     0.842400000000     0.375000000000     0          
T        Si     0.379700000000     0.713033333333     0.375000000000     0          
T        Si     0.349033333333     0.734666666667     0.555200000000     0          
T        Si     0.348800000000     0.819033333333     0.555300000000     0          
T        Si     0.428466666667     0.735966666667     0.558400000000     0          
T        Si     0.428166666667     0.818300000000     0.559000000000     0          
T        Si     0.556066666667     0.737200000000     0.559100000000     0          
T        Si     0.555700000000     0.819700000000     0.558400000000     0          
T        Si     0.490933333333     0.713533333333     0.625600000000     0          
T        Si     0.490933333333     0.842400000000     0.625000000000     0          
T        Si     0.620300000000     0.713033333333     0.625000000000     0          
T        Si     0.598666666667     0.682366666667     0.805200000000     0          
T        Si     0.514300000000     0.682133333333     0.805300000000     0          
T        Si     0.597366666667     0.761800000000     0.808400000000     0          
T        Si     0.515033333333     0.761500000000     0.809000000000     0          
T        Si     0.596133333333     0.889400000000     0.809100000000     0          
T        Si     0.513633333333     0.889033333333     0.808400000000     0          
T        Si     0.619800000000     0.824266666667     0.875600000000     0          
T        Si     0.490933333333     0.824266666667     0.875000000000     0          
T        Si     0.620300000000     0.953633333333     0.875000000000     0          
T        Si     0.650966666667     0.734666666667     0.444800000000     0          
T        Si     0.651200000000     0.819033333333     0.444700000000     0          
T        Si     0.571533333333     0.735966666667     0.441600000000     0          
T        Si     0.571833333333     0.818300000000     0.441000000000     0          
T        Si     0.443933333333     0.737200000000     0.440900000000     0          
T        Si     0.444300000000     0.819700000000     0.441600000000     0          
T        Si     0.509066666667     0.713533333333     0.374400000000     0          
T        Si     0.598666666667     0.984300000000     0.694800000000     0          
T        Si     0.514300000000     0.984533333333     0.694700000000     0          
T        Si     0.597366666667     0.904866666667     0.691600000000     0          
T        Si     0.515033333333     0.905166666667     0.691000000000     0          
T        Si     0.596133333333     0.777266666667     0.690900000000     0          
T        Si     0.513633333333     0.777633333333     0.691600000000     0          
T        Si     0.619800000000     0.842400000000     0.624400000000     0          
T        Si     0.349033333333     0.932000000000     0.944800000000     0          
T        Si     0.348800000000     0.847633333333     0.944700000000     0          
T        Si     0.428466666667     0.930700000000     0.941600000000     0          
T        Si     0.428166666667     0.848366666667     0.941000000000     0          
T        Si     0.556066666667     0.929466666667     0.940900000000     0          
T        Si     0.555700000000     0.846966666667     0.941600000000     0          
T        Si     0.490933333333     0.953133333333     0.874400000000     0          
T        Si     0.401333333333     0.682366666667     0.194800000000     0          
T        Si     0.485700000000     0.682133333333     0.194700000000     0          
T        Si     0.402633333333     0.761800000000     0.191600000000     0          
T        Si     0.484966666667     0.761500000000     0.191000000000     0          
T        Si     0.403866666667     0.889400000000     0.190900000000     0          
T        Si     0.486366666667     0.889033333333     0.191600000000     0          
T        Si     0.380200000000     0.824266666667     0.124400000000     0          
T        Si     0.984300000000     0.265333333333     0.055200000000     0          
T        Si     0.984533333333     0.180966666667     0.055300000000     0          
T        Si     0.904866666667     0.264033333333     0.058400000000     0          
T        Si     0.905166666667     0.181700000000     0.059000000000     0          
T        Si     0.777266666667     0.262800000000     0.059100000000     0          
T        Si     0.777633333333     0.180300000000     0.058400000000     0          
T        Si     0.842400000000     0.286466666667     0.125600000000     0          
T        Si     0.842400000000     0.157600000000     0.125000000000     0          
T        Si     0.713033333333     0.286966666667     0.125000000000     0          
T        Si     0.734666666667     0.317633333333     0.305200000000     0          
T        Si     0.819033333333     0.317866666667     0.305300000000     0          
T        Si     0.735966666667     0.238200000000     0.308400000000     0          
T        Si     0.818300000000     0.238500000000     0.309000000000     0          
T        Si     0.737200000000     0.110600000000     0.309100000000     0          
T        Si     0.819700000000     0.110966666667     0.308400000000     0          
T        Si     0.713533333333     0.175733333333     0.375600000000     0          
T        Si     0.842400000000     0.175733333333     0.375000000000     0          
T        Si     0.713033333333     0.046366666667     0.375000000000     0          
T        Si     0.682366666667     0.068000000000     0.555200000000     0          
T        Si     0.682133333333     0.152366666667     0.555300000000     0          
T        Si     0.761800000000     0.069300000000     0.558400000000     0          
T        Si     0.761500000000     0.151633333333     0.559000000000     0          
T        Si     0.889400000000     0.070533333333     0.559100000000     0          
T        Si     0.889033333333     0.153033333333     0.558400000000     0          
T        Si     0.824266666667     0.046866666667     0.625600000000     0          
T        Si     0.824266666667     0.175733333333     0.625000000000     0          
T        Si     0.953633333333     0.046366666667     0.625000000000     0          
T        Si     0.932000000000     0.015700000000     0.805200000000     0          
T        Si     0.847633333333     0.015466666667     0.805300000000     0          
T        Si     0.930700000000     0.095133333333     0.808400000000     0          
T        Si     0.848366666667     0.094833333333     0.809000000000     0          
T        Si     0.929466666667     0.222733333333     0.809100000000     0          
T        Si     0.846966666667     0.222366666667     0.808400000000     0          
T        Si     0.953133333333     0.157600000000     0.875600000000     0          
T        Si     0.824266666667     0.157600000000     0.875000000000     0          
T        Si     0.953633333333     0.286966666667     0.875000000000     0          
T        Si     0.984300000000     0.068000000000     0.444800000000     0          
T        Si     0.984533333333     0.152366666667     0.444700000000     0          
T        Si     0.904866666667     0.069300000000     0.441600000000     0          
T        Si     0.905166666667     0.151633333333     0.441000000000     0          
T        Si     0.777266666667     0.070533333333     0.440900000000     0          
T        Si     0.777633333333     0.153033333333     0.441600000000     0          
T        Si     0.842400000000     0.046866666667     0.374400000000     0          
T        Si     0.932000000000     0.317633333333     0.694800000000     0          
T        Si     0.847633333333     0.317866666667     0.694700000000     0          
T        Si     0.930700000000     0.238200000000     0.691600000000     0          
T        Si     0.848366666667     0.238500000000     0.691000000000     0          
T        Si     0.929466666667     0.110600000000     0.690900000000     0          
T        Si     0.846966666667     0.110966666667     0.691600000000     0          
T        Si     0.953133333333     0.175733333333     0.624400000000     0          
T        Si     0.682366666667     0.265333333333     0.944800000000     0          
T        Si     0.682133333333     0.180966666667     0.944700000000     0          
T        Si     0.761800000000     0.264033333333     0.941600000000     0          
T        Si     0.761500000000     0.181700000000     0.941000000000     0          
T        Si     0.889400000000     0.262800000000     0.940900000000     0          
T        Si     0.889033333333     0.180300000000     0.941600000000     0          
T        Si     0.824266666667     0.286466666667     0.874400000000     0          
T        Si     0.734666666667     0.015700000000     0.194800000000     0          
T        Si     0.819033333333     0.015466666667     0.194700000000     0          
T        Si     0.735966666667     0.095133333333     0.191600000000     0          
T        Si     0.818300000000     0.094833333333     0.191000000000     0          
T        Si     0.737200000000     0.222733333333     0.190900000000     0          
T        Si     0.819700000000     0.222366666667     0.191600000000     0          
T        Si     0.713533333333     0.157600000000     0.124400000000     0          
T        Si     0.984300000000     0.598666666667     0.055200000000     0          
T        Si     0.984533333333     0.514300000000     0.055300000000     0          
T        Si     0.904866666667     0.597366666667     0.058400000000     0          
T        Si     0.905166666667     0.515033333333     0.059000000000     0          
T        Si     0.777266666667     0.596133333333     0.059100000000     0          
T        Si     0.777633333333     0.513633333333     0.058400000000     0          
T        Si     0.842400000000     0.619800000000     0.125600000000     0          
T        Si     0.842400000000     0.490933333333     0.125000000000     0          
T        Si     0.713033333333     0.620300000000     0.125000000000     0          
T        Si     0.734666666667     0.650966666667     0.305200000000     0          
T        Si     0.819033333333     0.651200000000     0.305300000000     0          
T        Si     0.735966666667     0.571533333333     0.308400000000     0          
T        Si     0.818300000000     0.571833333333     0.309000000000     0          
T        Si     0.737200000000     0.443933333333     0.309100000000     0          
T        Si     0.819700000000     0.444300000000     0.308400000000     0          
T        Si     0.713533333333     0.509066666667     0.375600000000     0          
T        Si     0.842400000000     0.509066666667     0.375000000000     0          
T        Si     0.713033333333     0.379700000000     0.375000000000     0          
T        Si     0.682366666667     0.401333333333     0.555200000000     0          
T        Si     0.682133333333     0.485700000000     0.555300000000     0          
T        Si     0.761800000000     0.402633333333     0.558400000000     0          
T        Si     0.761500000000     0.484966666667     0.559000000000     0          
T        Si     0.889400000000     0.403866666667     0.559100000000     0          
T        Si     0.889033333333     0.486366666667     0.558400000000     0          
T        Si     0.824266666667     0.380200000000     0.625600000000     0          
T        Si     0.824266666667     0.509066666667     0.625000000000     0          
T        Si     0.953633333333     0.379700000000     0.625000000000     0          
T        Si     0.932000000000     0.349033333333     0.805200000000     0          
T        Si     0.847633333333     0.348800000000     0.805300000000     0          
T        Si     0.930700000000     0.428466666667     0.808400000000     0          
T        Si     0.848366666667     0.428166666667     0.809000000000     0          
T        Si     0.929466666667     0.556066666667     0.809100000000     0          
T        Si     0.846966666667     0.555700000000     0.808400000000     0          
T        Si     0.953133333333     0.490933333333     0.875600000000     0          
T        Si     0.824266666667     0.490933333333     0.875000000000     0          
T        Si     0.953633333333     0.620300000000     0.875000000000     0          
T        Si     0.984300000000     0.401333333333     0.444800000000     0          
T        Si     0.984533333333     0.485700000000     0.444700000000     0          
T        Si     0.904866666667     0.402633333333     0.441600000000     0          
T        Si     0.905166666667     0.484966666667     0.441000000000     0          
T        Si     0.777266666667     0.403866666667     0.440900000000     0          
T        Si     0.777633333333     0.486366666667     0.441600000000     0          
T        Si     0.842400000000     0.380200000000     0.374400000000     0          
T        Si     0.932000000000     0.650966666667     0.694800000000     0          
T        Si     0.847633333333     0.651200000000     0.694700000000     0          
T        Si     0.930700000000     0.571533333333     0.691600000000     0          
T        Si     0.848366666667     0.571833333333     0.691000000000     0          
T        Si     0.929466666667     0.443933333333     0.690900000000     0          
T        Si     0.846966666667     0.444300000000     0.691600000000     0          
T        Si     0.953133333333     0.509066666667     0.624400000000     0          
T        Si     0.682366666667     0.598666666667     0.944800000000     0          
T        Si     0.682133333333     0.514300000000     0.944700000000     0          
T        Si     0.761800000000     0.597366666667     0.941600000000     0          
T        Si     0.761500000000     0.515033333333     0.941000000000     0          
T        Si     0.889400000000     0.596133333333     0.940900000000     0          
T        Si     0.889033333333     0.513633333333     0.941600000000     0          
T        Si     0.824266666667     0.619800000000     0.874400000000     0          
T        Si     0.734666666667     0.349033333333     0.194800000000     0          
T        Si     0.819033333333     0.348800000000     0.194700000000     0          
T        Si     0.735966666667     0.428466666667     0.191600000000     0          
T        Si     0.818300000000     0.428166666667     0.191000000000     0          
T        Si     0.737200000000     0.556066666667     0.190900000000     0          
T        Si     0.819700000000     0.555700000000     0.191600000000     0          
T        Si     0.713533333333     0.490933333333     0.124400000000     0          
T        Si     0.984300000000     0.932000000000     0.055200000000     0          
T        Si     0.984533333333     0.847633333333     0.055300000000     0          
T        Si     0.904866666667     0.930700000000     0.058400000000     0          
T        Si     0.905166666667     0.848366666667     0.059000000000     0          
T        Si     0.777266666667     0.929466666667     0.059100000000     0          
T        Si     0.777633333333     0.846966666667     0.058400000000     0          
T        Si     0.842400000000     0.953133333333     0.125600000000     0          
T        Si     0.842400000000     0.824266666667     0.125000000000     0          
T        Si     0.713033333333     0.953633333333     0.125000000000     0          
T        Si     0.734666666667     0.984300000000     0.305200000000     0          
T        Si     0.819033333333     0.984533333333     0.305300000000     0          
T        Si     0.735966666667     0.904866666667     0.308400000000     0          
T        Si     0.818300000000     0.905166666667     0.309000000000     0          
T        Si     0.737200000000     0.777266666667     0.309100000000     0          
T        Si     0.819700000000     0.777633333333     0.308400000000     0          
T        Si     0.713533333333     0.842400000000     0.375600000000     0          
T        Si     0.842400000000     0.842400000000     0.375000000000     0          
T        Si     0.713033333333     0.713033333333     0.375000000000     0          
T        Si     0.682366666667     0.734666666667     0.555200000000     0          
T        Si     0.682133333333     0.819033333333     0.555300000000     0          
T        Si     0.761800000000     0.735966666667     0.558400000000     0          
T        Si     0.761500000000     0.818300000000     0.559000000000     0          
T        Si     0.889400000000     0.737200000000     0.559100000000     0          
T        Si     0.889033333333     0.819700000000     0.558400000000     0          
T        Si     0.824266666667     0.713533333333     0.625600000000     0          
T        Si     0.824266666667     0.842400000000     0.625000000000     0          
T        Si     0.953633333333     0.713033333333     0.625000000000     0          
T        Si     0.932000000000     0.682366666667     0.805200000000     0          
T        Si     0.847633333333     0.682133333333     0.805300000000     0          
T        Si     0.930700000000     0.761800000000     0.808400000000     0          
T        Si     0.848366666667     0.761500000000     0.809000000000     0          
T        Si     0.929466666667     0.889400000000     0.809100000000     0          
T        Si     0.846966666667     0.889033333333     0.808400000000     0          
T        Si     0.953133333333     0.824266666667     0.875600000000     0          
T        Si     0.824266666667     0.824266666667     0.875000000000     0          
T        Si     0.953633333333     0.953633333333     0.875000000000     0          
T        Si     0.984300000000     0.734666666667     0.444800000000     0          
T        Si     0.984533333333     0.819033333333     0.444700000000     0          
T        Si     0.904866666667     0.735966666667     0.441600000000     0          
T        Si     0.905166666667     0.818300000000     0.441000000000     0          
T        Si     0.777266666667     0.737200000000     0.440900000000     0          
T        Si     0.777633333333     0.819700000000     0.441600000000     0          
T        Si     0.842400000000     0.713533333333     0.374400000000     0          
T        Si     0.932000000000     0.984300000000     0.694800000000     0          
T        Si     0.847633333333     0.984533333333     0.694700000000     0          
T        Si     0.930700000000     0.904866666667     0.691600000000     0          
T        Si     0.848366666667     0.905166666667     0.691000000000     0          
T        Si     0.929466666667     0.777266666667     0.690900000000     0          
T        Si     0.846966666667     0.777633333333     0.691600000000     0          
T        Si     0.953133333333     0.842400000000     0.624400000000     0          
T        Si     0.682366666667     0.932000000000     0.944800000000     0          
T        Si     0.682133333333     0.847633333333     0.944700000000     0          
T        Si     0.761800000000     0.930700000000     0.941600000000     0          
T        Si     0.761500000000     0.848366666667     0.941000000000     0          
T        Si     0.889400000000     0.929466666667     0.940900000000     0          
T        Si     0.889033333333     0.846966666667     0.941600000000     0          
T        Si     0.824266666667     0.953133333333     0.874400000000     0          
T        Si     0.734666666667     0.682366666667     0.194800000000     0          
T        Si     0.819033333333     0.682133333333     0.194700000000     0          
T        Si     0.735966666667     0.761800000000     0.191600000000     0          
T        Si     0.818300000000     0.761500000000     0.191000000000     0          
T        Si     0.737200000000     0.889400000000     0.190900000000     0          
T        Si     0.819700000000     0.889033333333     0.191600000000     0          
T        Si     0.713533333333     0.824266666667     0.124400000000     0          
O        O      0.277700000000     0.279633333333     0.059400000000     0          
O        O      0.000000000000     0.275533333333     0.000000000000     0          
O        O      0.008000000000     0.283300000000     0.099100000000     0          
O        O      0.318000000000     0.223166666667     0.062100000000     0          
O        O      0.278100000000     0.166333333333     0.060300000000     0          
O        O      0.000000000000     0.170766666667     0.000000000000     0          
O        O      0.008666666667     0.163133333333     0.098800000000     0          
O        O      0.213933333333     0.284966666667     0.098700000000     0          
O        O      0.239366666667     0.222933333333     0.073800000000     0          
O        O      0.221933333333     0.267800000000     0.001900000000     0          
O        O      0.214466666667     0.161266666667     0.100100000000     0          
O        O      0.222066666667     0.176600000000     0.002900000000     0          
O        O      0.145633333333     0.280133333333     0.083200000000     0          
O        O      0.109333333333     0.221466666667     0.073300000000     0          
O        O      0.076333333333     0.282300000000     0.082000000000     0          
O        O      0.146266666667     0.162833333333     0.081400000000     0          
O        O      0.076966666667     0.160300000000     0.081200000000     0          
O        O      0.053700000000     0.277700000000     0.309400000000     0          
O        O      0.057800000000     0.000000000000     0.250000000000     0          
O        O      0.050033333333     0.008000000000     0.349100000000     0          
O        O      0.110166666667     0.318000000000     0.312100000000     0          
O        O      0.167000000000     0.278100000000     0.310300000000     0          
O        O      0.162566666667     0.000000000000     0.250000000000     0          
O        O      0.170200000000     0.008666666667     0.348800000000     0          
O        O      0.048366666667     0.213933333333     0.348700000000     0          
O        O      0.110400000000     0.239366666667     0.323800000000     0          
O        O      0.065533333333     0.221933333333     0.251900000000     0          
O        O      0.172066666667     0.214466666667     0.350100000000     0          
O        O      0.156733333333     0.222066666667     0.252900000000     0          
O        O      0.053200000000     0.145633333333     0.333200000000     0          
O        O      0.111866666667     0.109333333333     0.323300000000     0          
O        O      0.051033333333     0.076333333333     0.332000000000     0          
O        O      0.170500000000     0.146266666667     0.331400000000     0          
O        O      0.173033333333     0.076966666667     0.331200000000     0          
O        O      0.055633333333     0.053700000000     0.559400000000     0          
O        O      0.000000000000     0.057800000000     0.500000000000     0          
O        O      0.325333333333     0.050033333333     0.599100000000     0          
O        O      0.015333333333     0.110166666667     0.562100000000     0          
O        O      0.055233333333     0.167000000000     0.560300000000     0          
O        O      0.000000000000     0.162566666667     0.500000000000     0          
O        O      0.324666666667     0.170200000000     0.598800000000     0          
O        O      0.119400000000     0.048366666667     0.598700000000     0          
O        O      0.093966666667     0.110400000000     0.573800000000     0          
O        O      0.111400000000     0.065533333333     0.501900000000     0          
O        O      0.118866666667     0.172066666667     0.600100000000     0          
O        O      0.111266666667     0.156733333333     0.502900000000     0          
O        O      0.187700000000     0.053200000000     0.583200000000     0          
O        O      0.224000000000     0.111866666667     0.573300000000     0          
O        O      0.257000000000     0.051033333333     0.582000000000     0          
O        O      0.187066666667     0.170500000000     0.581400000000     0          
O        O      0.256366666667     0.173033333333     0.581200000000     0          
O        O      0.279633333333     0.055633333333     0.809400000000     0          
O        O      0.275533333333     0.000000000000     0.750000000000     0          
O        O      0.283300000000     0.325333333333     0.849100000000     0          
O        O      0.223166666667     0.015333333333     0.812100000000     0          
O        O      0.166333333333     0.055233333333     0.810300000000     0          
O        O      0.170766666667     0.000000000000     0.750000000000     0          
O        O      0.163133333333     0.324666666667     0.848800000000     0          
O        O      0.284966666667     0.119400000000     0.848700000000     0          
O        O      0.222933333333     0.093966666667     0.823800000000     0          
O        O      0.267800000000     0.111400000000     0.751900000000     0          
O        O      0.161266666667     0.118866666667     0.850100000000     0          
O        O      0.176600000000     0.111266666667     0.752900000000     0          
O        O      0.280133333333     0.187700000000     0.833200000000     0          
O        O      0.221466666667     0.224000000000     0.823300000000     0          
O        O      0.282300000000     0.257000000000     0.832000000000     0          
O        O      0.162833333333     0.187066666667     0.831400000000     0          
O        O      0.160300000000     0.256366666667     0.831200000000     0          
O        O      0.277700000000     0.053700000000     0.440600000000     0          
O        O      0.008000000000     0.050033333333     0.400900000000     0          
O        O      0.318000000000     0.110166666667     0.437900000000     0          
O        O      0.278100000000     0.167000000000     0.439700000000     0          
O        O      0.008666666667     0.170200000000     0.401200000000     0          
O        O      0.213933333333     0.048366666667     0.401300000000     0          
O        O      0.239366666667     0.110400000000     0.426200000000     0          
O        O      0.221933333333     0.065533333333     0.498100000000     0          
O        O      0.214466666667     0.172066666667     0.399900000000     0          
O        O      0.222066666667     0.156733333333     0.497100000000     0          
O        O      0.145633333333     0.053200000000     0.416800000000     0          
O        O      0.109333333333     0.111866666667     0.426700000000     0          
O        O      0.076333333333     0.051033333333     0.418000000000     0          
O        O      0.146266666667     0.170500000000     0.418600000000     0          
O        O      0.076966666667     0.173033333333     0.418800000000     0          
O        O      0.279633333333     0.277700000000     0.690600000000     0          
O        O      0.283300000000     0.008000000000     0.650900000000     0          
O        O      0.223166666667     0.318000000000     0.687900000000     0          
O        O      0.166333333333     0.278100000000     0.689700000000     0          
O        O      0.163133333333     0.008666666667     0.651200000000     0          
O        O      0.284966666667     0.213933333333     0.651300000000     0          
O        O      0.222933333333     0.239366666667     0.676200000000     0          
O        O      0.267800000000     0.221933333333     0.748100000000     0          
O        O      0.161266666667     0.214466666667     0.649900000000     0          
O        O      0.176600000000     0.222066666667     0.747100000000     0          
O        O      0.280133333333     0.145633333333     0.666800000000     0          
O        O      0.221466666667     0.109333333333     0.676700000000     0          
O        O      0.282300000000     0.076333333333     0.668000000000     0          
O        O      0.162833333333     0.146266666667     0.668600000000     0          
O        O      0.160300000000     0.076966666667     0.668800000000     0          
O        O      0.055633333333     0.279633333333     0.940600000000     0          
O        O      0.325333333333     0.283300000000     0.900900000000     0          
O        O      0.015333333333     0.223166666667     0.937900000000     0          
O        O      0.055233333333     0.166333333333     0.939700000000     0          
O        O      0.324666666667     0.163133333333     0.901200000000     0          
O        O      0.119400000000     0.284966666667     0.901300000000     0          
O        O      0.093966666667     0.222933333333     0.926200000000     0          
O        O      0.111400000000     0.267800000000     0.998100000000     0          
O        O      0.118866666667     0.161266666667     0.899900000000     0          
O        O      0.111266666667     0.176600000000     0.997100000000     0          
O        O      0.187700000000     0.280133333333     0.916800000000     0          
O        O      0.224000000000     0.221466666667     0.926700000000     0          
O        O      0.257000000000     0.282300000000     0.918000000000     0          
O        O      0.187066666667     0.162833333333     0.918600000000     0          
O        O      0.256366666667     0.160300000000     0.918800000000     0          
O        O      0.053700000000     0.055633333333     0.190600000000     0          
O        O      0.050033333333     0.325333333333     0.150900000000     0          
O        O      0.110166666667     0.015333333333     0.187900000000     0          
O        O      0.167000000000     0.055233333333     0.189700000000     0          
O        O      0.170200000000     0.324666666667     0.151200000000     0          
O        O      0.048366666667     0.119400000000     0.151300000000     0          
O        O      0.110400000000     0.093966666667     0.176200000000     0          
O        O      0.065533333333     0.111400000000     0.248100000000     0          
O        O      0.172066666667     0.118866666667     0.149900000000     0          
O        O      0.156733333333     0.111266666667     0.247100000000     0          
O        O      0.053200000000     0.187700000000     0.166800000000     0          
O        O      0.111866666667     0.224000000000     0.176700000000     0          
O        O      0.051033333333     0.257000000000     0.168000000000     0          
O        O      0.170500000000     0.187066666667     0.168600000000     0          
O        O      0.173033333333     0.256366666667     0.168800000000     0          
O        O      0.277700000000     0.612966666667     0.059400000000     0          
O        O      0.000000000000     0.608866666667     0.000000000000     0          
O        O      0.008000000000     0.616633333333     0.099100000000     0          
O        O      0.318000000000     0.556500000000     0.062100000000     0          
O        O      0.278100000000     0.499666666667     0.060300000000     0          
O        O      0.000000000000     0.504100000000     0.000000000000     0          
O        O      0.008666666667     0.496466666667     0.098800000000     0          
O        O      0.213933333333     0.618300000000     0.098700000000     0          
O        O      0.239366666667     0.556266666667     0.073800000000     0          
O        O      0.221933333333     0.601133333333     0.001900000000     0          
O        O      0.214466666667     0.494600000000     0.100100000000     0          
O        O      0.222066666667     0.509933333333     0.002900000000     0          
O        O      0.145633333333     0.613466666667     0.083200000000     0          
O        O      0.109333333333     0.554800000000     0.073300000000     0          
O        O      0.076333333333     0.615633333333     0.082000000000     0          
O        O      0.146266666667     0.496166666667     0.081400000000     0          
O        O      0.076966666667     0.493633333333     0.081200000000     0          
O        O      0.053700000000     0.611033333333     0.309400000000     0          
O        O      0.057800000000     0.333333333333     0.250000000000     0          
O        O      0.050033333333     0.341333333333     0.349100000000     0          
O        O      0.110166666667     0.651333333333     0.312100000000     0          
O        O      0.167000000000     0.611433333333     0.310300000000     0          
O        O      0.162566666667     0.333333333333     0.250000000000     0          
O        O      0.170200000000     0.342000000000     0.348800000000     0          
O        O      0.048366666667     0.547266666667     0.348700000000     0          
O        O      0.110400000000     0.572700000000     0.323800000000     0          
O        O      0.065533333333     0.555266666667     0.251900000000     0          
O        O      0.172066666667     0.547800000000     0.350100000000     0          
O        O      0.156733333333     0.555400000000     0.252900000000     0          
O        O      0.053200000000     0.478966666667     0.333200000000     0          
O        O      0.111866666667     0.442666666667     0.323300000000     0          
O        O      0.051033333333     0.409666666667     0.332000000000     0          
O        O      0.170500000000     0.479600000000     0.331400000000     0          
O        O      0.173033333333     0.410300000000     0.331200000000     0          
O        O      0.055633333333     0.387033333333     0.559400000000     0          
O        O      0.000000000000     0.391133333333     0.500000000000     0          
O        O      0.325333333333     0.383366666667     0.599100000000     0          
O        O      0.015333333333     0.443500000000     0.562100000000     0          
O        O      0.055233333333     0.500333333333     0.560300000000     0          
O        O      0.000000000000     0.495900000000     0.500000000000     0          
O        O      0.324666666667     0.503533333333     0.598800000000     0          
O        O      0.119400000000     0.381700000000     0.598700000000     0          
O        O      0.093966666667     0.443733333333     0.573800000000     0          
O        O      0.111400000000     0.398866666667     0.501900000000     0          
O        O      0.118866666667     0.505400000000     0.600100000000     0          
O        O      0.111266666667     0.490066666667     0.502900000000     0          
O        O      0.187700000000     0.386533333333     0.583200000000     0          
O        O      0.224000000000     0.445200000000     0.573300000000     0          
O        O      0.257000000000     0.384366666667     0.582000000000     0          
O        O      0.187066666667     0.503833333333     0.581400000000     0          
O        O      0.256366666667     0.506366666667     0.581200000000     0          
O        O      0.279633333333     0.388966666667     0.809400000000     0          
O        O      0.275533333333     0.333333333333     0.750000000000     0          
O        O      0.283300000000     0.658666666667     0.849100000000     0          
O        O      0.223166666667     0.348666666667     0.812100000000     0          
O        O      0.166333333333     0.388566666667     0.810300000000     0          
O        O      0.170766666667     0.333333333333     0.750000000000     0          
O        O      0.163133333333     0.658000000000     0.848800000000     0          
O        O      0.284966666667     0.452733333333     0.848700000000     0          
O        O      0.222933333333     0.427300000000     0.823800000000     0          
O        O      0.267800000000     0.444733333333     0.751900000000     0          
O        O      0.161266666667     0.452200000000     0.850100000000     0          
O        O      0.176600000000     0.444600000000     0.752900000000     0          
O        O      0.280133333333     0.521033333333     0.833200000000     0          
O        O      0.221466666667     0.557333333333     0.823300000000     0          
O        O      0.282300000000     0.590333333333     0.832000000000     0          
O        O      0.162833333333     0.520400000000     0.831400000000     0          
O        O      0.160300000000     0.589700000000     0.831200000000     0          
O        O      0.277700000000     0.387033333333     0.440600000000     0          
O        O      0.008000000000     0.383366666667     0.400900000000     0          
O        O      0.318000000000     0.443500000000     0.437900000000     0          
O        O      0.278100000000     0.500333333333     0.439700000000     0          
O        O      0.008666666667     0.503533333333     0.401200000000     0          
O        O      0.213933333333     0.381700000000     0.401300000000     0          
O        O      0.239366666667     0.443733333333     0.426200000000     0          
O        O      0.221933333333     0.398866666667     0.498100000000     0          
O        O      0.214466666667     0.505400000000     0.399900000000     0          
O        O      0.222066666667     0.490066666667     0.497100000000     0          
O        O      0.145633333333     0.386533333333     0.416800000000     0          
O        O      0.109333333333     0.445200000000     0.426700000000     0          
O        O      0.076333333333     0.384366666667     0.418000000000     0          
O        O      0.146266666667     0.503833333333     0.418600000000     0          
O        O      0.076966666667     0.506366666667     0.418800000000     0          
O        O      0.279633333333     0.611033333333     0.690600000000     0          
O        O      0.283300000000     0.341333333333     0.650900000000     0          
O        O      0.223166666667     0.651333333333     0.687900000000     0          
O        O      0.166333333333     0.611433333333     0.689700000000     0          
O        O      0.163133333333     0.342000000000     0.651200000000     0          
O        O      0.284966666667     0.547266666667     0.651300000000     0          
O        O      0.222933333333     0.572700000000     0.676200000000     0          
O        O      0.267800000000     0.555266666667     0.748100000000     0          
O        O      0.161266666667     0.547800000000     0.649900000000     0          
O        O      0.176600000000     0.555400000000     0.747100000000     0          
O        O      0.280133333333     0.478966666667     0.666800000000     0          
O        O      0.221466666667     0.442666666667     0.676700000000     0          
O        O      0.282300000000     0.409666666667     0.668000000000     0          
O        O      0.162833333333     0.479600000000     0.668600000000     0          
O        O      0.160300000000     0.410300000000     0.668800000000     0          
O        O      0.055633333333     0.612966666667     0.940600000000     0          
O        O      0.325333333333     0.616633333333     0.900900000000     0          
O        O      0.015333333333     0.556500000000     0.937900000000     0          
O        O      0.055233333333     0.499666666667     0.939700000000     0          
O        O      0.324666666667     0.496466666667     0.901200000000     0          
O        O      0.119400000000     0.618300000000     0.901300000000     0          
O        O      0.093966666667     0.556266666667     0.926200000000     0          
O        O      0.111400000000     0.601133333333     0.998100000000     0          
O        O      0.118866666667     0.494600000000     0.899900000000     0          
O        O      0.111266666667     0.509933333333     0.997100000000     0          
O        O      0.187700000000     0.613466666667     0.916800000000     0          
O        O      0.224000000000     0.554800000000     0.926700000000     0          
O        O      0.257000000000     0.615633333333     0.918000000000     0          
O        O      0.187066666667     0.496166666667     0.918600000000     0          
O        O      0.256366666667     0.493633333333     0.918800000000     0          
O        O      0.053700000000     0.388966666667     0.190600000000     0          
O        O      0.050033333333     0.658666666667     0.150900000000     0          
O        O      0.110166666667     0.348666666667     0.187900000000     0          
O        O      0.167000000000     0.388566666667     0.189700000000     0          
O        O      0.170200000000     0.658000000000     0.151200000000     0          
O        O      0.048366666667     0.452733333333     0.151300000000     0          
O        O      0.110400000000     0.427300000000     0.176200000000     0          
O        O      0.065533333333     0.444733333333     0.248100000000     0          
O        O      0.172066666667     0.452200000000     0.149900000000     0          
O        O      0.156733333333     0.444600000000     0.247100000000     0          
O        O      0.053200000000     0.521033333333     0.166800000000     0          
O        O      0.111866666667     0.557333333333     0.176700000000     0          
O        O      0.051033333333     0.590333333333     0.168000000000     0          
O        O      0.170500000000     0.520400000000     0.168600000000     0          
O        O      0.173033333333     0.589700000000     0.168800000000     0          
O        O      0.277700000000     0.946300000000     0.059400000000     0          
O        O      0.000000000000     0.942200000000     0.000000000000     0          
O        O      0.008000000000     0.949966666667     0.099100000000     0          
O        O      0.318000000000     0.889833333333     0.062100000000     0          
O        O      0.278100000000     0.833000000000     0.060300000000     0          
O        O      0.000000000000     0.837433333333     0.000000000000     0          
O        O      0.008666666667     0.829800000000     0.098800000000     0          
O        O      0.213933333333     0.951633333333     0.098700000000     0          
O        O      0.239366666667     0.889600000000     0.073800000000     0          
O        O      0.221933333333     0.934466666667     0.001900000000     0          
O        O      0.214466666667     0.827933333333     0.100100000000     0          
O        O      0.222066666667     0.843266666667     0.002900000000     0          
O        O      0.145633333333     0.946800000000     0.083200000000     0          
O        O      0.109333333333     0.888133333333     0.073300000000     0          
O        O      0.076333333333     0.948966666667     0.082000000000     0          
O        O      0.146266666667     0.829500000000     0.081400000000     0          
O        O      0.076966666667     0.826966666667     0.081200000000     0          
O        O      0.053700000000     0.944366666667     0.309400000000     0          
O        O      0.057800000000     0.666666666667     0.250000000000     0          
O        O      0.050033333333     0.674666666667     0.349100000000     0          
O        O      0.110166666667     0.984666666667     0.312100000000     0          
O        O      0.167000000000     0.944766666667     0.310300000000     0          
O        O      0.162566666667     0.666666666667     0.250000000000     0          
O        O      0.170200000000     0.675333333333     0.348800000000     0          
O        O      0.048366666667     0.880600000000     0.348700000000     0          
O        O      0.110400000000     0.906033333333     0.323800000000     0          
O        O      0.065533333333     0.888600000000     0.251900000000     0          
O        O      0.172066666667     0.881133333333     0.350100000000     0          
O        O      0.156733333333     0.888733333333     0.252900000000     0          
O        O      0.053200000000     0.812300000000     0.333200000000     0          
O        O      0.111866666667     0.776000000000     0.323300000000     0          
O        O      0.051033333333     0.743000000000     0.332000000000     0          
O        O      0.170500000000     0.812933333333     0.331400000000     0          
O        O      0.173033333333     0.743633333333     0.331200000000     0          
O        O      0.055633333333     0.720366666667     0.559400000000     0          
O        O      0.000000000000     0.724466666667     0.500000000000     0          
O        O      0.325333333333     0.716700000000     0.599100000000     0          
O        O      0.015333333333     0.776833333333     0.562100000000     0          
O        O      0.055233333333     0.833666666667     0.560300000000     0          
O        O      0.000000000000     0.829233333333     0.500000000000     0          
O        O      0.324666666667     0.836866666667     0.598800000000     0          
O        O      0.119400000000     0.715033333333     0.598700000000     0          
O        O      0.093966666667     0.777066666667     0.573800000000     0          
O        O      0.111400000000     0.732200000000     0.501900000000     0          
O        O      0.118866666667     0.838733333333     0.600100000000     0          
O        O      0.111266666667     0.823400000000     0.502900000000     0          
O        O      0.187700000000     0.719866666667     0.583200000000     0          
O        O      0.224000000000     0.778533333333     0.573300000000     0          
O        O      0.257000000000     0.717700000000     0.582000000000     0          
O        O      0.187066666667     0.837166666667     0.581400000000     0          
O        O      0.256366666667     0.839700000000     0.581200000000     0          
O        O      0.279633333333     0.722300000000     0.809400000000     0          
O        O      0.275533333333     0.666666666667     0.750000000000     0          
O        O      0.283300000000     0.992000000000     0.849100000000     0          
O        O      0.223166666667     0.682000000000     0.812100000000     0          
O        O      0.166333333333     0.721900000000     0.810300000000     0          
O        O      0.170766666667     0.666666666667     0.750000000000     0          
O        O      0.163133333333     0.991333333333     0.848800000000     0          
O        O      0.284966666667     0.786066666667     0.848700000000     0          
O        O      0.222933333333     0.760633333333     0.823800000000     0          
O        O      0.267800000000     0.778066666667     0.751900000000     0          
O        O      0.161266666667     0.785533333333     0.850100000000     0          
O        O      0.176600000000     0.777933333333     0.752900000000     0          
O        O      0.280133333333     0.854366666667     0.833200000000     0          
O        O      0.221466666667     0.890666666667     0.823300000000     0          
O        O      0.282300000000     0.923666666667     0.832000000000     0          
O        O      0.162833333333     0.853733333333     0.831400000000     0          
O        O      0.160300000000     0.923033333333     0.831200000000     0          
O        O      0.277700000000     0.720366666667     0.440600000000     0          
O        O      0.008000000000     0.716700000000     0.400900000000     0          
O        O      0.318000000000     0.776833333333     0.437900000000     0          
O        O      0.278100000000     0.833666666667     0.439700000000     0          
O        O      0.008666666667     0.836866666667     0.401200000000     0          
O        O      0.213933333333     0.715033333333     0.401300000000     0          
O        O      0.239366666667     0.777066666667     0.426200000000     0          
O        O      0.221933333333     0.732200000000     0.498100000000     0          
O        O      0.214466666667     0.838733333333     0.399900000000     0          
O        O      0.222066666667     0.823400000000     0.497100000000     0          
O        O      0.145633333333     0.719866666667     0.416800000000     0          
O        O      0.109333333333     0.778533333333     0.426700000000     0          
O        O      0.076333333333     0.717700000000     0.418000000000     0          
O        O      0.146266666667     0.837166666667     0.418600000000     0          
O        O      0.076966666667     0.839700000000     0.418800000000     0          
O        O      0.279633333333     0.944366666667     0.690600000000     0          
O        O      0.283300000000     0.674666666667     0.650900000000     0          
O        O      0.223166666667     0.984666666667     0.687900000000     0          
O        O      0.166333333333     0.944766666667     0.689700000000     0          
O        O      0.163133333333     0.675333333333     0.651200000000     0          
O        O      0.284966666667     0.880600000000     0.651300000000     0          
O        O      0.222933333333     0.906033333333     0.676200000000     0          
O        O      0.267800000000     0.888600000000     0.748100000000     0          
O        O      0.161266666667     0.881133333333     0.649900000000     0          
O        O      0.176600000000     0.888733333333     0.747100000000     0          
O        O      0.280133333333     0.812300000000     0.666800000000     0          
O        O      0.221466666667     0.776000000000     0.676700000000     0          
O        O      0.282300000000     0.743000000000     0.668000000000     0          
O        O      0.162833333333     0.812933333333     0.668600000000     0          
O        O      0.160300000000     0.743633333333     0.668800000000     0          
O        O      0.055633333333     0.946300000000     0.940600000000     0          
O        O      0.325333333333     0.949966666667     0.900900000000     0          
O        O      0.015333333333     0.889833333333     0.937900000000     0          
O        O      0.055233333333     0.833000000000     0.939700000000     0          
O        O      0.324666666667     0.829800000000     0.901200000000     0          
O        O      0.119400000000     0.951633333333     0.901300000000     0          
O        O      0.093966666667     0.889600000000     0.926200000000     0          
O        O      0.111400000000     0.934466666667     0.998100000000     0          
O        O      0.118866666667     0.827933333333     0.899900000000     0          
O        O      0.111266666667     0.843266666667     0.997100000000     0          
O        O      0.187700000000     0.946800000000     0.916800000000     0          
O        O      0.224000000000     0.888133333333     0.926700000000     0          
O        O      0.257000000000     0.948966666667     0.918000000000     0          
O        O      0.187066666667     0.829500000000     0.918600000000     0          
O        O      0.256366666667     0.826966666667     0.918800000000     0          
O        O      0.053700000000     0.722300000000     0.190600000000     0          
O        O      0.050033333333     0.992000000000     0.150900000000     0          
O        O      0.110166666667     0.682000000000     0.187900000000     0          
O        O      0.167000000000     0.721900000000     0.189700000000     0          
O        O      0.170200000000     0.991333333333     0.151200000000     0          
O        O      0.048366666667     0.786066666667     0.151300000000     0          
O        O      0.110400000000     0.760633333333     0.176200000000     0          
O        O      0.065533333333     0.778066666667     0.248100000000     0          
O        O      0.172066666667     0.785533333333     0.149900000000     0          
O        O      0.156733333333     0.777933333333     0.247100000000     0          
O        O      0.053200000000     0.854366666667     0.166800000000     0          
O        O      0.111866666667     0.890666666667     0.176700000000     0          
O        O      0.051033333333     0.923666666667     0.168000000000     0          
O        O      0.170500000000     0.853733333333     0.168600000000     0          
O        O      0.173033333333     0.923033333333     0.168800000000     0          
O        O      0.611033333333     0.279633333333     0.059400000000     0          
O        O      0.333333333333     0.275533333333     0.000000000000     0          
O        O      0.341333333333     0.283300000000     0.099100000000     0          
O        O      0.651333333333     0.223166666667     0.062100000000     0          
O        O      0.611433333333     0.166333333333     0.060300000000     0          
O        O      0.333333333333     0.170766666667     0.000000000000     0          
O        O      0.342000000000     0.163133333333     0.098800000000     0          
O        O      0.547266666667     0.284966666667     0.098700000000     0          
O        O      0.572700000000     0.222933333333     0.073800000000     0          
O        O      0.555266666667     0.267800000000     0.001900000000     0          
O        O      0.547800000000     0.161266666667     0.100100000000     0          
O        O      0.555400000000     0.176600000000     0.002900000000     0          
O        O      0.478966666667     0.280133333333     0.083200000000     0          
O        O      0.442666666667     0.221466666667     0.073300000000     0          
O        O      0.409666666667     0.282300000000     0.082000000000     0          
O        O      0.479600000000     0.162833333333     0.081400000000     0          
O        O      0.410300000000     0.160300000000     0.081200000000     0          
O        O      0.387033333333     0.277700000000     0.309400000000     0          
O        O      0.391133333333     0.000000000000     0.250000000000     0          
O        O      0.383366666667     0.008000000000     0.349100000000     0          
O        O      0.443500000000     0.318000000000     0.312100000000     0          
O        O      0.500333333333     0.278100000000     0.310300000000     0          
O        O      0.495900000000     0.000000000000     0.250000000000     0          
O        O      0.503533333333     0.008666666667     0.348800000000     0          
O        O      0.381700000000     0.213933333333     0.348700000000     0          
O        O      0.443733333333     0.239366666667     0.323800000000     0          
O        O      0.398866666667     0.221933333333     0.251900000000     0          
O        O      0.505400000000     0.214466666667     0.350100000000     0          
O        O      0.490066666667     0.222066666667     0.252900000000     0          
O        O      0.386533333333     0.145633333333     0.333200000000     0          
O        O      0.445200000000     0.109333333333     0.323300000000     0          
O        O      0.384366666667     0.076333333333     0.332000000000     0          
O        O      0.503833333333     0.146266666667     0.331400000000     0          
O        O      0.506366666667     0.076966666667     0.331200000000     0          
O        O      0.388966666667     0.053700000000     0.559400000000     0          
O        O      0.333333333333     0.057800000000     0.500000000000     0          
O        O      0.658666666667     0.050033333333     0.599100000000     0          
O        O      0.348666666667     0.110166666667     0.562100000000     0          
O        O      0.388566666667     0.167000000000     0.560300000000     0          
O        O      0.333333333333     0.162566666667     0.500000000000     0          
O        O      0.658000000000     0.170200000000     0.598800000000     0          
O        O      0.452733333333     0.048366666667     0.598700000000     0          
O        O      0.427300000000     0.110400000000     0.573800000000     0          
O        O      0.444733333333     0.065533333333     0.501900000000     0          
O        O      0.452200000000     0.172066666667     0.600100000000     0          
O        O      0.444600000000     0.156733333333     0.502900000000     0          
O        O      0.521033333333     0.053200000000     0.583200000000     0          
O        O      0.557333333333     0.111866666667     0.573300000000     0          
O        O      0.590333333333     0.051033333333     0.582000000000     0          
O        O      0.520400000000     0.170500000000     0.581400000000     0          
O        O      0.589700000000     0.173033333333     0.581200000000     0          
O        O      0.612966666667     0.055633333333     0.809400000000     0          
O        O      0.608866666667     0.000000000000     0.750000000000     0          
O        O      0.616633333333     0.325333333333     0.849100000000     0          
O        O      0.556500000000     0.015333333333     0.812100000000     0          
O        O      0.499666666667     0.055233333333     0.810300000000     0          
O        O      0.504100000000     0.000000000000     0.750000000000     0          
O        O      0.496466666667     0.324666666667     0.848800000000     0          
O        O      0.618300000000     0.119400000000     0.848700000000     0          
O        O      0.556266666667     0.093966666667     0.823800000000     0          
O        O      0.601133333333     0.111400000000     0.751900000000     0          
O        O      0.494600000000     0.118866666667     0.850100000000     0          
O        O      0.509933333333     0.111266666667     0.752900000000     0          
O        O      0.613466666667     0.187700000000     0.833200000000     0          
O        O      0.554800000000     0.224000000000     0.823300000000     0          
O        O      0.615633333333     0.257000000000     0.832000000000     0          
O        O      0.496166666667     0.187066666667     0.831400000000     0          
O        O      0.493633333333     0.256366666667     0.831200000000     0          
O        O      0.611033333333     0.053700000000     0.440600000000     0          
O        O      0.341333333333     0.050033333333     0.400900000000     0          
O        O      0.651333333333     0.110166666667     0.437900000000     0          
O        O      0.611433333333     0.167000000000     0.439700000000     0          
O        O      0.342000000000     0.170200000000     0.401200000000     0          
O        O      0.547266666667     0.048366666667     0.401300000000     0          
O        O      0.572700000000     0.110400000000     0.426200000000     0          
O        O      0.555266666667     0.065533333333     0.498100000000     0          
O        O      0.547800000000     0.172066666667     0.399900000000     0          
O        O      0.555400000000     0.156733333333     0.497100000000     0          
O        O      0.478966666667     0.053200000000     0.416800000000     0          
O        O      0.442666666667     0.111866666667     0.426700000000     0          
O        O      0.409666666667     0.051033333333     0.418000000000     0          
O        O      0.479600000000     0.170500000000     0.418600000000     0          
O        O      0.410300000000     0.173033333333     0.418800000000     0          
O        O      0.612966666667     0.277700000000     0.690600000000     0          
O        O      0.616633333333     0.008000000000     0.650900000000     0          
O        O      0.556500000000     0.318000000000     0.687900000000     0          
O        O      0.499666666667     0.278100000000     0.689700000000     0          
O        O      0.496466666667     0.008666666667     0.651200000000     0          
O        O      0.618300000000     0.213933333333     0.651300000000     0          
O        O      0.556266666667     0.239366666667     0.676200000000     0          
O        O      0.601133333333     0.221933333333     0.748100000000     0          
O        O      0.494600000000     0.214466666667     0.649900000000     0          
O        O      0.509933333333     0.222066666667     0.747100000000     0          
O        O      0.613466666667     0.145633333333     0.666800000000     0          
O        O      0.554800000000     0.109333333333     0.676700000000     0          
O        O      0.615633333333     0.076333333333     0.668000000000     0          
O        O      0.496166666667     0.146266666667     0.668600000000     0          
O        O      0.493633333333     0.076966666667     0.668800000000     0          
O        O      0.388966666667     0.279633333333     0.940600000000     0          
O        O      0.658666666667     0.283300000000     0.900900000000     0          
O        O      0.348666666667     0.223166666667     0.937900000000     0          
O        O      0.388566666667     0.166333333333     0.939700000000     0          
O        O      0.658000000000     0.163133333333     0.901200000000     0          
O        O      0.452733333333     0.284966666667     0.901300000000     0          
O        O      0.427300000000     0.222933333333     0.926200000000     0          
O        O      0.444733333333     0.267800000000     0.998100000000     0          
O        O      0.452200000000     0.161266666667     0.899900000000     0          
O        O      0.444600000000     0.176600000000     0.997100000000     0          
O        O      0.521033333333     0.280133333333     0.916800000000     0          
O        O      0.557333333333     0.221466666667     0.926700000000     0          
O        O      0.590333333333     0.282300000000     0.918000000000     0          
O        O      0.520400000000     0.162833333333     0.918600000000     0          
O        O      0.589700000000     0.160300000000     0.918800000000     0          
O        O      0.387033333333     0.055633333333     0.190600000000     0          
O        O      0.383366666667     0.325333333333     0.150900000000     0          
O        O      0.443500000000     0.015333333333     0.187900000000     0          
O        O      0.500333333333     0.055233333333     0.189700000000     0          
O        O      0.503533333333     0.324666666667     0.151200000000     0          
O        O      0.381700000000     0.119400000000     0.151300000000     0          
O        O      0.443733333333     0.093966666667     0.176200000000     0          
O        O      0.398866666667     0.111400000000     0.248100000000     0          
O        O      0.505400000000     0.118866666667     0.149900000000     0          
O        O      0.490066666667     0.111266666667     0.247100000000     0          
O        O      0.386533333333     0.187700000000     0.166800000000     0          
O        O      0.445200000000     0.224000000000     0.176700000000     0          
O        O      0.384366666667     0.257000000000     0.168000000000     0          
O        O      0.503833333333     0.187066666667     0.168600000000     0          
O        O      0.506366666667     0.256366666667     0.168800000000     0          
O        O      0.611033333333     0.612966666667     0.059400000000     0          
O        O      0.333333333333     0.608866666667     0.000000000000     0          
O        O      0.341333333333     0.616633333333     0.099100000000     0          
O        O      0.651333333333     0.556500000000     0.062100000000     0          
O        O      0.611433333333     0.499666666667     0.060300000000     0          
O        O      0.333333333333     0.504100000000     0.000000000000     0          
O        O      0.342000000000     0.496466666667     0.098800000000     0          
O        O      0.547266666667     0.618300000000     0.098700000000     0          
O        O      0.572700000000     0.556266666667     0.073800000000     0          
O        O      0.555266666667     0.601133333333     0.001900000000     0          
O        O      0.547800000000     0.494600000000     0.100100000000     0          
O        O      0.555400000000     0.509933333333     0.002900000000     0          
O        O      0.478966666667     0.613466666667     0.083200000000     0          
O        O      0.442666666667     0.554800000000     0.073300000000     0          
O        O      0.409666666667     0.615633333333     0.082000000000     0          
O        O      0.479600000000     0.496166666667     0.081400000000     0          
O        O      0.410300000000     0.493633333333     0.081200000000     0          
O        O      0.387033333333     0.611033333333     0.309400000000     0          
O        O      0.391133333333     0.333333333333     0.250000000000     0          
O        O      0.383366666667     0.341333333333     0.349100000000     0          
O        O      0.443500000000     0.651333333333     0.312100000000     0          
O        O      0.500333333333     0.611433333333     0.310300000000     0          
O        O      0.495900000000     0.333333333333     0.250000000000     0          
O        O      0.503533333333     0.342000000000     0.348800000000     0          
O        O      0.381700000000     0.547266666667     0.348700000000     0          
O        O      0.443733333333     0.572700000000     0.323800000000     0          
O        O      0.398866666667     0.555266666667     0.251900000000     0          
O        O      0.505400000000     0.547800000000     0.350100000000     0          
O        O      0.490066666667     0.555400000000     0.252900000000     0          
O        O      0.386533333333     0.478966666667     0.333200000000     0          
O        O      0.445200000000     0.442666666667     0.323300000000     0          
O        O      0.384366666667     0.409666666667     0.332000000000     0          
O        O      0.503833333333     0.479600000000     0.331400000000     0          
O        O      0.506366666667     0.410300000000     0.331200000000     0          
O        O      0.388966666667     0.387033333333     0.559400000000     0          
O        O      0.333333333333     0.391133333333     0.500000000000     0          
O        O      0.658666666667     0.383366666667     0.599100000000     0          
O        O      0.348666666667     0.443500000000     0.562100000000     0          
O        O      0.388566666667     0.500333333333     0.560300000000     0          
O        O      0.333333333333     0.495900000000     0.500000000000     0          
O        O      0.658000000000     0.503533333333     0.598800000000     0          
O        O      0.452733333333     0.381700000000     0.598700000000     0          
O        O      0.427300000000     0.443733333333     0.573800000000     0          
O        O      0.444733333333     0.398866666667     0.501900000000     0          
O        O      0.452200000000     0.505400000000     0.600100000000     0          
O        O      0.444600000000     0.490066666667     0.502900000000     0          
O        O      0.521033333333     0.386533333333     0.583200000000     0          
O        O      0.557333333333     0.445200000000     0.573300000000     0          
O        O      0.590333333333     0.384366666667     0.582000000000     0          
O        O      0.520400000000     0.503833333333     0.581400000000     0          
O        O      0.589700000000     0.506366666667     0.581200000000     0          
O        O      0.612966666667     0.388966666667     0.809400000000     0          
O        O      0.608866666667     0.333333333333     0.750000000000     0          
O        O      0.616633333333     0.658666666667     0.849100000000     0          
O        O      0.556500000000     0.348666666667     0.812100000000     0          
O        O      0.499666666667     0.388566666667     0.810300000000     0          
O        O      0.504100000000     0.333333333333     0.750000000000     0          
O        O      0.496466666667     0.658000000000     0.848800000000     0          
O        O      0.618300000000     0.452733333333     0.848700000000     0          
O        O      0.556266666667     0.427300000000     0.823800000000     0          
O        O      0.601133333333     0.444733333333     0.751900000000     0          
O        O      0.494600000000     0.452200000000     0.850100000000     0          
O        O      0.509933333333     0.444600000000     0.752900000000     0          
O        O      0.613466666667     0.521033333333     0.833200000000     0          
O        O      0.554800000000     0.557333333333     0.823300000000     0          
O        O      0.615633333333     0.590333333333     0.832000000000     0          
O        O      0.496166666667     0.520400000000     0.831400000000     0          
O        O      0.493633333333     0.589700000000     0.831200000000     0          
O        O      0.611033333333     0.387033333333     0.440600000000     0          
O        O      0.341333333333     0.383366666667     0.400900000000     0          
O        O      0.651333333333     0.443500000000     0.437900000000     0          
O        O      0.611433333333     0.500333333333     0.439700000000     0          
O        O      0.342000000000     0.503533333333     0.401200000000     0          
O        O      0.547266666667     0.381700000000     0.401300000000     0          
O        O      0.572700000000     0.443733333333     0.426200000000     0          
O        O      0.555266666667     0.398866666667     0.498100000000     0          
O        O      0.547800000000     0.505400000000     0.399900000000     0          
O        O      0.555400000000     0.490066666667     0.497100000000     0          
O        O      0.478966666667     0.386533333333     0.416800000000     0          
O        O      0.442666666667     0.445200000000     0.426700000000     0          
O        O      0.409666666667     0.384366666667     0.418000000000     0          
O        O      0.479600000000     0.503833333333     0.418600000000     0          
O        O      0.410300000000     0.506366666667     0.418800000000     0          
O        O      0.612966666667     0.611033333333     0.690600000000     0          
O        O      0.616633333333     0.341333333333     0.650900000000     0          
O        O      0.556500000000     0.651333333333     0.687900000000     0          
O        O      0.499666666667     0.611433333333     0.689700000000     0          
O        O      0.496466666667     0.342000000000     0.651200000000     0          
O        O      0.618300000000     0.547266666667     0.651300000000     0          
O        O      0.556266666667     0.572700000000     0.676200000000     0          
O        O      0.601133333333     0.555266666667     0.748100000000     0          
O        O      0.494600000000     0.547800000000     0.649900000000     0          
O        O      0.509933333333     0.555400000000     0.747100000000     0          
O        O      0.613466666667     0.478966666667     0.666800000000     0          
O        O      0.554800000000     0.442666666667     0.676700000000     0          
O        O      0.615633333333     0.409666666667     0.668000000000     0          
O        O      0.496166666667     0.479600000000     0.668600000000     0          
O        O      0.493633333333     0.410300000000     0.668800000000     0          
O        O      0.388966666667     0.612966666667     0.940600000000     0          
O        O      0.658666666667     0.616633333333     0.900900000000     0          
O        O      0.348666666667     0.556500000000     0.937900000000     0          
O        O      0.388566666667     0.499666666667     0.939700000000     0          
O        O      0.658000000000     0.496466666667     0.901200000000     0          
O        O      0.452733333333     0.618300000000     0.901300000000     0          
O        O      0.427300000000     0.556266666667     0.926200000000     0          
O        O      0.444733333333     0.601133333333     0.998100000000     0          
O        O      0.452200000000     0.494600000000     0.899900000000     0          
O        O      0.444600000000     0.509933333333     0.997100000000     0          
O        O      0.521033333333     0.613466666667     0.916800000000     0          
O        O      0.557333333333     0.554800000000     0.926700000000     0          
O        O      0.590333333333     0.615633333333     0.918000000000     0          
O        O      0.520400000000     0.496166666667     0.918600000000     0          
O        O      0.589700000000     0.493633333333     0.918800000000     0          
O        O      0.387033333333     0.388966666667     0.190600000000     0          
O        O      0.383366666667     0.658666666667     0.150900000000     0          
O        O      0.443500000000     0.348666666667     0.187900000000     0          
O        O      0.500333333333     0.388566666667     0.189700000000     0          
O        O      0.503533333333     0.658000000000     0.151200000000     0          
O        O      0.381700000000     0.452733333333     0.151300000000     0          
O        O      0.443733333333     0.427300000000     0.176200000000     0          
O        O      0.398866666667     0.444733333333     0.248100000000     0          
O        O      0.505400000000     0.452200000000     0.149900000000     0          
O        O      0.490066666667     0.444600000000     0.247100000000     0          
O        O      0.386533333333     0.521033333333     0.166800000000     0          
O        O      0.445200000000     0.557333333333     0.176700000000     0          
O        O      0.384366666667     0.590333333333     0.168000000000     0          
O        O      0.503833333333     0.520400000000     0.168600000000     0          
O        O      0.506366666667     0.589700000000     0.168800000000     0          
O        O      0.611033333333     0.946300000000     0.059400000000     0          
O        O      0.333333333333     0.942200000000     0.000000000000     0          
O        O      0.341333333333     0.949966666667     0.099100000000     0          
O        O      0.651333333333     0.889833333333     0.062100000000     0          
O        O      0.611433333333     0.833000000000     0.060300000000     0          
O        O      0.333333333333     0.837433333333     0.000000000000     0          
O        O      0.342000000000     0.829800000000     0.098800000000     0          
O        O      0.547266666667     0.951633333333     0.098700000000     0          
O        O      0.572700000000     0.889600000000     0.073800000000     0          
O        O      0.555266666667     0.934466666667     0.001900000000     0          
O        O      0.547800000000     0.827933333333     0.100100000000     0          
O        O      0.555400000000     0.843266666667     0.002900000000     0          
O        O      0.478966666667     0.946800000000     0.083200000000     0          
O        O      0.442666666667     0.888133333333     0.073300000000     0          
O        O      0.409666666667     0.948966666667     0.082000000000     0          
O        O      0.479600000000     0.829500000000     0.081400000000     0          
O        O      0.410300000000     0.826966666667     0.081200000000     0          
O        O      0.387033333333     0.944366666667     0.309400000000     0          
O        O      0.391133333333     0.666666666667     0.250000000000     0          
O        O      0.383366666667     0.674666666667     0.349100000000     0          
O        O      0.443500000000     0.984666666667     0.312100000000     0          
O        O      0.500333333333     0.944766666667     0.310300000000     0          
O        O      0.495900000000     0.666666666667     0.250000000000     0          
O        O      0.503533333333     0.675333333333     0.348800000000     0          
O        O      0.381700000000     0.880600000000     0.348700000000     0          
O        O      0.443733333333     0.906033333333     0.323800000000     0          
O        O      0.398866666667     0.888600000000     0.251900000000     0          
O        O      0.505400000000     0.881133333333     0.350100000000     0          
O        O      0.490066666667     0.888733333333     0.252900000000     0          
O        O      0.386533333333     0.812300000000     0.333200000000     0          
O        O      0.445200000000     0.776000000000     0.323300000000     0          
O        O      0.384366666667     0.743000000000     0.332000000000     0          
O        O      0.503833333333     0.812933333333     0.331400000000     0          
O        O      0.506366666667     0.743633333333     0.331200000000     0          
O        O      0.388966666667     0.720366666667     0.559400000000     0          
O        O      0.333333333333     0.724466666667     0.500000000000     0          
O        O      0.658666666667     0.716700000000     0.599100000000     0          
O        O      0.348666666667     0.776833333333     0.562100000000     0          
O        O      0.388566666667     0.833666666667     0.560300000000     0          
O        O      0.333333333333     0.829233333333     0.500000000000     0          
O        O      0.658000000000     0.836866666667     0.598800000000     0          
O        O      0.452733333333     0.715033333333     0.598700000000     0          
O        O      0.427300000000     0.777066666667     0.573800000000     0          
O        O      0.444733333333     0.732200000000     0.501900000000     0          
O        O      0.452200000000     0.838733333333     0.600100000000     0          
O        O      0.444600000000     0.823400000000     0.502900000000     0          
O        O      0.521033333333     0.719866666667     0.583200000000     0          
O        O      0.557333333333     0.778533333333     0.573300000000     0          
O        O      0.590333333333     0.717700000000     0.582000000000     0          
O        O      0.520400000000     0.837166666667     0.581400000000     0          
O        O      0.589700000000     0.839700000000     0.581200000000     0          
O        O      0.612966666667     0.722300000000     0.809400000000     0          
O        O      0.608866666667     0.666666666667     0.750000000000     0          
O        O      0.616633333333     0.992000000000     0.849100000000     0          
O        O      0.556500000000     0.682000000000     0.812100000000     0          
O        O      0.499666666667     0.721900000000     0.810300000000     0          
O        O      0.504100000000     0.666666666667     0.750000000000     0          
O        O      0.496466666667     0.991333333333     0.848800000000     0          
O        O      0.618300000000     0.786066666667     0.848700000000     0          
O        O      0.556266666667     0.760633333333     0.823800000000     0          
O        O      0.601133333333     0.778066666667     0.751900000000     0          
O        O      0.494600000000     0.785533333333     0.850100000000     0          
O        O      0.509933333333     0.777933333333     0.752900000000     0          
O        O      0.613466666667     0.854366666667     0.833200000000     0          
O        O      0.554800000000     0.890666666667     0.823300000000     0          
O        O      0.615633333333     0.923666666667     0.832000000000     0          
O        O      0.496166666667     0.853733333333     0.831400000000     0          
O        O      0.493633333333     0.923033333333     0.831200000000     0          
O        O      0.611033333333     0.720366666667     0.440600000000     0          
O        O      0.341333333333     0.716700000000     0.400900000000     0          
O        O      0.651333333333     0.776833333333     0.437900000000     0          
O        O      0.611433333333     0.833666666667     0.439700000000     0          
O        O      0.342000000000     0.836866666667     0.401200000000     0          
O        O      0.547266666667     0.715033333333     0.401300000000     0          
O        O      0.572700000000     0.777066666667     0.426200000000     0          
O        O      0.555266666667     0.732200000000     0.498100000000     0          
O        O      0.547800000000     0.838733333333     0.399900000000     0          
O        O      0.555400000000     0.823400000000     0.497100000000     0          
O        O      0.478966666667     0.719866666667     0.416800000000     0          
O        O      0.442666666667     0.778533333333     0.426700000000     0          
O        O      0.409666666667     0.717700000000     0.418000000000     0          
O        O      0.479600000000     0.837166666667     0.418600000000     0          
O        O      0.410300000000     0.839700000000     0.418800000000     0          
O        O      0.612966666667     0.944366666667     0.690600000000     0          
O        O      0.616633333333     0.674666666667     0.650900000000     0          
O        O      0.556500000000     0.984666666667     0.687900000000     0          
O        O      0.499666666667     0.944766666667     0.689700000000     0          
O        O      0.496466666667     0.675333333333     0.651200000000     0          
O        O      0.618300000000     0.880600000000     0.651300000000     0          
O        O      0.556266666667     0.906033333333     0.676200000000     0          
O        O      0.601133333333     0.888600000000     0.748100000000     0          
O        O      0.494600000000     0.881133333333     0.649900000000     0          
O        O      0.509933333333     0.888733333333     0.747100000000     0          
O        O      0.613466666667     0.812300000000     0.666800000000     0          
O        O      0.554800000000     0.776000000000     0.676700000000     0          
O        O      0.615633333333     0.743000000000     0.668000000000     0          
O        O      0.496166666667     0.812933333333     0.668600000000     0          
O        O      0.493633333333     0.743633333333     0.668800000000     0          
O        O      0.388966666667     0.946300000000     0.940600000000     0          
O        O      0.658666666667     0.949966666667     0.900900000000     0          
O        O      0.348666666667     0.889833333333     0.937900000000     0          
O        O      0.388566666667     0.833000000000     0.939700000000     0          
O        O      0.658000000000     0.829800000000     0.901200000000     0          
O        O      0.452733333333     0.951633333333     0.901300000000     0          
O        O      0.427300000000     0.889600000000     0.926200000000     0          
O        O      0.444733333333     0.934466666667     0.998100000000     0          
O        O      0.452200000000     0.827933333333     0.899900000000     0          
O        O      0.444600000000     0.843266666667     0.997100000000     0          
O        O      0.521033333333     0.946800000000     0.916800000000     0          
O        O      0.557333333333     0.888133333333     0.926700000000     0          
O        O      0.590333333333     0.948966666667     0.918000000000     0          
O        O      0.520400000000     0.829500000000     0.918600000000     0          
O        O      0.589700000000     0.826966666667     0.918800000000     0          
O        O      0.387033333333     0.722300000000     0.190600000000     0          
O        O      0.383366666667     0.992000000000     0.150900000000     0          
O        O      0.443500000000     0.682000000000     0.187900000000     0          
O        O      0.500333333333     0.721900000000     0.189700000000     0          
O        O      0.503533333333     0.991333333333     0.151200000000     0          
O        O      0.381700000000     0.786066666667     0.151300000000     0          
O        O      0.443733333333     0.760633333333     0.176200000000     0          
O        O      0.398866666667     0.778066666667     0.248100000000     0          
O        O      0.505400000000     0.785533333333     0.149900000000     0          
O        O      0.490066666667     0.777933333333     0.247100000000     0          
O        O      0.386533333333     0.854366666667     0.166800000000     0          
O        O      0.445200000000     0.890666666667     0.176700000000     0          
O        O      0.384366666667     0.923666666667     0.168000000000     0          
O        O      0.503833333333     0.853733333333     0.168600000000     0          
O        O      0.506366666667     0.923033333333     0.168800000000     0          
O        O      0.944366666667     0.279633333333     0.059400000000     0          
O        O      0.666666666667     0.275533333333     0.000000000000     0          
O        O      0.674666666667     0.283300000000     0.099100000000     0          
O        O      0.984666666667     0.223166666667     0.062100000000     0          
O        O      0.944766666667     0.166333333333     0.060300000000     0          
O        O      0.666666666667     0.170766666667     0.000000000000     0          
O        O      0.675333333333     0.163133333333     0.098800000000     0          
O        O      0.880600000000     0.284966666667     0.098700000000     0          
O        O      0.906033333333     0.222933333333     0.073800000000     0          
O        O      0.888600000000     0.267800000000     0.001900000000     0          
O        O      0.881133333333     0.161266666667     0.100100000000     0          
O        O      0.888733333333     0.176600000000     0.002900000000     0          
O        O      0.812300000000     0.280133333333     0.083200000000     0          
O        O      0.776000000000     0.221466666667     0.073300000000     0          
O        O      0.743000000000     0.282300000000     0.082000000000     0          
O        O      0.812933333333     0.162833333333     0.081400000000     0          
O        O      0.743633333333     0.160300000000     0.081200000000     0          
O        O      0.720366666667     0.277700000000     0.309400000000     0          
O        O      0.724466666667     0.000000000000     0.250000000000     0          
O        O      0.716700000000     0.008000000000     0.349100000000     0          
O        O      0.776833333333     0.318000000000     0.312100000000     0          
O        O      0.833666666667     0.278100000000     0.310300000000     0          
O        O      0.829233333333     0.000000000000     0.250000000000     0          
O        O      0.836866666667     0.008666666667     0.348800000000     0          
O        O      0.715033333333     0.213933333333     0.348700000000     0          
O        O      0.777066666667     0.239366666667     0.323800000000     0          
O        O      0.732200000000     0.221933333333     0.251900000000     0          
O        O      0.838733333333     0.214466666667     0.350100000000     0          
O        O      0.823400000000     0.222066666667     0.252900000000     0          
O        O      0.719866666667     0.145633333333     0.333200000000     0          
O        O      0.778533333333     0.109333333333     0.323300000000     0          
O        O      0.717700000000     0.076333333333     0.332000000000     0          
O        O      0.837166666667     0.146266666667     0.331400000000     0          
O        O      0.839700000000     0.076966666667     0.331200000000     0          
O        O      0.722300000000     0.053700000000     0.559400000000     0          
O        O      0.666666666667     0.057800000000     0.500000000000     0          
O        O      0.992000000000     0.050033333333     0.599100000000     0          
O        O      0.682000000000     0.110166666667     0.562100000000     0          
O        O      0.721900000000     0.167000000000     0.560300000000     0          
O        O      0.666666666667     0.162566666667     0.500000000000     0          
O        O      0.991333333333     0.170200000000     0.598800000000     0          
O        O      0.786066666667     0.048366666667     0.598700000000     0          
O        O      0.760633333333     0.110400000000     0.573800000000     0          
O        O      0.778066666667     0.065533333333     0.501900000000     0          
O        O      0.785533333333     0.172066666667     0.600100000000     0          
O        O      0.777933333333     0.156733333333     0.502900000000     0          
O        O      0.854366666667     0.053200000000     0.583200000000     0          
O        O      0.890666666667     0.111866666667     0.573300000000     0          
O        O      0.923666666667     0.051033333333     0.582000000000     0          
O        O      0.853733333333     0.170500000000     0.581400000000     0          
O        O      0.923033333333     0.173033333333     0.581200000000     0          
O        O      0.946300000000     0.055633333333     0.809400000000     0          
O        O      0.942200000000     0.000000000000     0.750000000000     0          
O        O      0.949966666667     0.325333333333     0.849100000000     0          
O        O      0.889833333333     0.015333333333     0.812100000000     0          
O        O      0.833000000000     0.055233333333     0.810300000000     0          
O        O      0.837433333333     0.000000000000     0.750000000000     0          
O        O      0.829800000000     0.324666666667     0.848800000000     0          
O        O      0.951633333333     0.119400000000     0.848700000000     0          
O        O      0.889600000000     0.093966666667     0.823800000000     0          
O        O      0.934466666667     0.111400000000     0.751900000000     0          
O        O      0.827933333333     0.118866666667     0.850100000000     0          
O        O      0.843266666667     0.111266666667     0.752900000000     0          
O        O      0.946800000000     0.187700000000     0.833200000000     0          
O        O      0.888133333333     0.224000000000     0.823300000000     0          
O        O      0.948966666667     0.257000000000     0.832000000000     0          
O        O      0.829500000000     0.187066666667     0.831400000000     0          
O        O      0.826966666667     0.256366666667     0.831200000000     0          
O        O      0.944366666667     0.053700000000     0.440600000000     0          
O        O      0.674666666667     0.050033333333     0.400900000000     0          
O        O      0.984666666667     0.110166666667     0.437900000000     0          
O        O      0.944766666667     0.167000000000     0.439700000000     0          
O        O      0.675333333333     0.170200000000     0.401200000000     0          
O        O      0.880600000000     0.048366666667     0.401300000000     0          
O        O      0.906033333333     0.110400000000     0.426200000000     0          
O        O      0.888600000000     0.065533333333     0.498100000000     0          
O        O      0.881133333333     0.172066666667     0.399900000000     0          
O        O      0.888733333333     0.156733333333     0.497100000000     0          
O        O      0.812300000000     0.053200000000     0.416800000000     0          
O        O      0.776000000000     0.111866666667     0.426700000000     0          
O        O      0.743000000000     0.051033333333     0.418000000000     0          
O        O      0.812933333333     0.170500000000     0.418600000000     0          
O        O      0.743633333333     0.173033333333     0.418800000000     0          
O        O      0.946300000000     0.277700000000     0.690600000000     0          
O        O      0.949966666667     0.008000000000     0.650900000000     0          
O        O      0.889833333333     0.318000000000     0.687900000000     0          
O        O      0.833000000000     0.278100000000     0.689700000000     0          
O        O      0.829800000000     0.008666666667     0.651200000000     0          
O        O      0.951633333333     0.213933333333     0.651300000000     0          
O        O      0.889600000000     0.239366666667     0.676200000000     0          
O        O      0.934466666667     0.221933333333     0.748100000000     0          
O        O      0.827933333333     0.214466666667     0.649900000000     0          
O        O      0.843266666667     0.222066666667     0.747100000000     0          
O        O      0.946800000000     0.145633333333     0.666800000000     0          
O        O      0.888133333333     0.109333333333     0.676700000000     0          
O        O      0.948966666667     0.076333333333     0.668000000000     0          
O        O      0.829500000000     0.146266666667     0.668600000000     0          
O        O      0.826966666667     0.076966666667     0.668800000000     0          
O        O      0.722300000000     0.279633333333     0.940600000000     0          
O        O      0.992000000000     0.283300000000     0.900900000000     0          
O        O      0.682000000000     0.223166666667     0.937900000000     0          
O        O      0.721900000000     0.166333333333     0.939700000000     0          
O        O      0.991333333333     0.163133333333     0.901200000000     0          
O        O      0.786066666667     0.284966666667     0.901300000000     0          
O        O      0.760633333333     0.222933333333     0.926200000000     0          
O        O      0.778066666667     0.267800000000     0.998100000000     0          
O        O      0.785533333333     0.161266666667     0.899900000000     0          
O        O      0.777933333333     0.176600000000     0.997100000000     0          
O        O      0.854366666667     0.280133333333     0.916800000000     0          
O        O      0.890666666667     0.221466666667     0.926700000000     0          
O        O      0.923666666667     0.282300000000     0.918000000000     0          
O        O      0.853733333333     0.162833333333     0.918600000000     0          
O        O      0.923033333333     0.160300000000     0.918800000000     0          
O        O      0.720366666667     0.055633333333     0.190600000000     0          
O        O      0.716700000000     0.325333333333     0.150900000000     0          
O        O      0.776833333333     0.015333333333     0.187900000000     0          
O        O      0.833666666667     0.055233333333     0.189700000000     0          
O        O      0.836866666667     0.324666666667     0.151200000000     0          
O        O      0.715033333333     0.119400000000     0.151300000000     0          
O        O      0.777066666667     0.093966666667     0.176200000000     0          
O        O      0.732200000000     0.111400000000     0.248100000000     0          
O        O      0.838733333333     0.118866666667     0.149900000000     0          
O        O      0.823400000000     0.111266666667     0.247100000000     0          
O        O      0.719866666667     0.187700000000     0.166800000000     0          
O        O      0.778533333333     0.224000000000     0.176700000000     0          
O        O      0.717700000000     0.257000000000     0.168000000000     0          
O        O      0.837166666667     0.187066666667     0.168600000000     0          
O        O      0.839700000000     0.256366666667     0.168800000000     0          
O        O      0.944366666667     0.612966666667     0.059400000000     0          
O        O      0.666666666667     0.608866666667     0.000000000000     0          
O        O      0.674666666667     0.616633333333     0.099100000000     0          
O        O      0.984666666667     0.556500000000     0.062100000000     0          
O        O      0.944766666667     0.499666666667     0.060300000000     0          
O        O      0.666666666667     0.504100000000     0.000000000000     0          
O        O      0.675333333333     0.496466666667     0.098800000000     0          
O        O      0.880600000000     0.618300000000     0.098700000000     0          
O        O      0.906033333333     0.556266666667     0.073800000000     0          
O        O      0.888600000000     0.601133333333     0.001900000000     0          
O        O      0.881133333333     0.494600000000     0.100100000000     0          
O        O      0.888733333333     0.509933333333     0.002900000000     0          
O        O      0.812300000000     0.613466666667     0.083200000000     0          
O        O      0.776000000000     0.554800000000     0.073300000000     0          
O        O      0.743000000000     0.615633333333     0.082000000000     0          
O        O      0.812933333333     0.496166666667     0.081400000000     0          
O        O      0.743633333333     0.493633333333     0.081200000000     0          
O        O      0.720366666667     0.611033333333     0.309400000000     0          
O        O      0.724466666667     0.333333333333     0.250000000000     0          
O        O      0.716700000000     0.341333333333     0.349100000000     0          
O        O      0.776833333333     0.651333333333     0.312100000000     0          
O        O      0.833666666667     0.611433333333     0.310300000000     0          
O        O      0.829233333333     0.333333333333     0.250000000000     0          
O        O      0.836866666667     0.342000000000     0.348800000000     0          
O        O      0.715033333333     0.547266666667     0.348700000000     0          
O        O      0.777066666667     0.572700000000     0.323800000000     0          
O        O      0.732200000000     0.555266666667     0.251900000000     0          
O        O      0.838733333333     0.547800000000     0.350100000000     0          
O        O      0.823400000000     0.555400000000     0.252900000000     0          
O        O      0.719866666667     0.478966666667     0.333200000000     0          
O        O      0.778533333333     0.442666666667     0.323300000000     0          
O        O      0.717700000000     0.409666666667     0.332000000000     0          
O        O      0.837166666667     0.479600000000     0.331400000000     0          
O        O      0.839700000000     0.410300000000     0.331200000000     0          
O        O      0.722300000000     0.387033333333     0.559400000000     0          
O        O      0.666666666667     0.391133333333     0.500000000000     0          
O        O      0.992000000000     0.383366666667     0.599100000000     0          
O        O      0.682000000000     0.443500000000     0.562100000000     0          
O        O      0.721900000000     0.500333333333     0.560300000000     0          
O        O      0.666666666667     0.495900000000     0.500000000000     0          
O        O      0.991333333333     0.503533333333     0.598800000000     0          
O        O      0.786066666667     0.381700000000     0.598700000000     0          
O        O      0.760633333333     0.443733333333     0.573800000000     0          
O        O      0.778066666667     0.398866666667     0.501900000000     0          
O        O      0.785533333333     0.505400000000     0.600100000000     0          
O        O      0.777933333333     0.490066666667     0.502900000000     0          
O        O      0.854366666667     0.386533333333     0.583200000000     0          
O        O      0.890666666667     0.445200000000     0.573300000000     0          
O        O      0.923666666667     0.384366666667     0.582000000000     0          
O        O      0.853733333333     0.503833333333     0.581400000000     0          
O        O      0.923033333333     0.506366666667     0.581200000000     0          
O        O      0.946300000000     0.388966666667     0.809400000000     0          
O        O      0.942200000000     0.333333333333     0.750000000000     0          
O        O      0.949966666667     0.658666666667     0.849100000000     0          
O        O      0.889833333333     0.348666666667     0.812100000000     0          
O        O      0.833000000000     0.388566666667     0.810300000000     0          
O        O      0.837433333333     0.333333333333     0.750000000000     0          
O        O      0.829800000000     0.658000000000     0.848800000000     0          
O        O      0.951633333333     0.452733333333     0.848700000000     0          
O        O      0.889600000000     0.427300000000     0.823800000000     0          
O        O      0.934466666667     0.444733333333     0.751900000000     0          
O        O      0.827933333333     0.452200000000     0.850100000000     0          
O        O      0.843266666667     0.444600000000     0.752900000000     0          
O        O      0.946800000000     0.521033333333     0.833200000000     0          
O        O      0.888133333333     0.557333333333     0.823300000000     0          
O        O      0.948966666667     0.590333333333     0.832000000000     0          
O        O      0.829500000000     0.520400000000     0.831400000000     0          
O        O      0.826966666667     0.589700000000     0.831200000000     0          
O        O      0.944366666667     0.387033333333     0.440600000000     0          
O        O      0.674666666667     0.383366666667     0.400900000000     0          
O        O      0.984666666667     0.443500000000     0.437900000000     0          
O        O      0.944766666667     0.500333333333     0.439700000000     0          
O        O      0.675333333333     0.503533333333     0.401200000000     0          
O        O      0.880600000000     0.381700000000     0.401300000000     0          
O        O      0.906033333333     0.443733333333     0.426200000000     0          
O        O      0.888600000000     0.398866666667     0.498100000000     0          
O        O      0.881133333333     0.505400000000     0.399900000000     0          
O        O      0.888733333333     0.490066666667     0.497100000000     0          
O        O      0.812300000000     0.386533333333     0.416800000000     0          
O        O      0.776000000000     0.445200000000     0.426700000000     0          
O        O      0.743000000000     0.384366666667     0.418000000000     0          
O        O      0.812933333333     0.503833333333     0.418600000000     0          
O        O      0.743633333333     0.506366666667     0.418800000000     0          
O        O      0.946300000000     0.611033333333     0.690600000000     0          
O        O      0.949966666667     0.341333333333     0.650900000000     0          
O        O      0.889833333333     0.651333333333     0.687900000000     0          
O        O      0.833000000000     0.611433333333     0.689700000000     0          
O        O      0.829800000000     0.342000000000     0.651200000000     0          
O        O      0.951633333333     0.547266666667     0.651300000000     0          
O        O      0.889600000000     0.572700000000     0.676200000000     0          
O        O      0.934466666667     0.555266666667     0.748100000000     0          
O        O      0.827933333333     0.547800000000     0.649900000000     0          
O        O      0.843266666667     0.555400000000     0.747100000000     0          
O        O      0.946800000000     0.478966666667     0.666800000000     0          
O        O      0.888133333333     0.442666666667     0.676700000000     0          
O        O      0.948966666667     0.409666666667     0.668000000000     0          
O        O      0.829500000000     0.479600000000     0.668600000000     0          
O        O      0.826966666667     0.410300000000     0.668800000000     0          
O        O      0.722300000000     0.612966666667     0.940600000000     0          
O        O      0.992000000000     0.616633333333     0.900900000000     0          
O        O      0.682000000000     0.556500000000     0.937900000000     0          
O        O      0.721900000000     0.499666666667     0.939700000000     0          
O        O      0.991333333333     0.496466666667     0.901200000000     0          
O        O      0.786066666667     0.618300000000     0.901300000000     0          
O        O      0.760633333333     0.556266666667     0.926200000000     0          
O        O      0.778066666667     0.601133333333     0.998100000000     0          
O        O      0.785533333333     0.494600000000     0.899900000000     0          
O        O      0.777933333333     0.509933333333     0.997100000000     0          
O        O      0.854366666667     0.613466666667     0.916800000000     0          
O        O      0.890666666667     0.554800000000     0.926700000000     0          
O        O      0.923666666667     0.615633333333     0.918000000000     0          
O        O      0.853733333333     0.496166666667     0.918600000000     0          
O        O      0.923033333333     0.493633333333     0.918800000000     0          
O        O      0.720366666667     0.388966666667     0.190600000000     0          
O        O      0.716700000000     0.658666666667     0.150900000000     0          
O        O      0.776833333333     0.348666666667     0.187900000000     0          
O        O      0.833666666667     0.388566666667     0.189700000000     0          
O        O      0.836866666667     0.658000000000     0.151200000000     0          
O        O      0.715033333333     0.452733333333     0.151300000000     0          
O        O      0.777066666667     0.427300000000     0.176200000000     0          
O        O      0.732200000000     0.444733333333     0.248100000000     0          
O        O      0.838733333333     0.452200000000     0.149900000000     0          
O        O      0.823400000000     0.444600000000     0.247100000000     0          
O        O      0.719866666667     0.521033333333     0.166800000000     0          
O        O      0.778533333333     0.557333333333     0.176700000000     0          
O        O      0.717700000000     0.590333333333     0.168000000000     0          
O        O      0.837166666667     0.520400000000     0.168600000000     0          
O        O      0.839700000000     0.589700000000     0.168800000000     0          
O        O      0.944366666667     0.946300000000     0.059400000000     0          
O        O      0.666666666667     0.942200000000     0.000000000000     0          
O        O      0.674666666667     0.949966666667     0.099100000000     0          
O        O      0.984666666667     0.889833333333     0.062100000000     0          
O        O      0.944766666667     0.833000000000     0.060300000000     0          
O        O      0.666666666667     0.837433333333     0.000000000000     0          
O        O      0.675333333333     0.829800000000     0.098800000000     0          
O        O      0.880600000000     0.951633333333     0.098700000000     0          
O        O      0.906033333333     0.889600000000     0.073800000000     0          
O        O      0.888600000000     0.934466666667     0.001900000000     0          
O        O      0.881133333333     0.827933333333     0.100100000000     0          
O        O      0.888733333333     0.843266666667     0.002900000000     0          
O        O      0.812300000000     0.946800000000     0.083200000000     0          
O        O      0.776000000000     0.888133333333     0.073300000000     0          
O        O      0.743000000000     0.948966666667     0.082000000000     0          
O        O      0.812933333333     0.829500000000     0.081400000000     0          
O        O      0.743633333333     0.826966666667     0.081200000000     0          
O        O      0.720366666667     0.944366666667     0.309400000000     0          
O        O      0.724466666667     0.666666666667     0.250000000000     0          
O        O      0.716700000000     0.674666666667     0.349100000000     0          
O        O      0.776833333333     0.984666666667     0.312100000000     0          
O        O      0.833666666667     0.944766666667     0.310300000000     0          
O        O      0.829233333333     0.666666666667     0.250000000000     0          
O        O      0.836866666667     0.675333333333     0.348800000000     0          
O        O      0.715033333333     0.880600000000     0.348700000000     0          
O        O      0.777066666667     0.906033333333     0.323800000000     0          
O        O      0.732200000000     0.888600000000     0.251900000000     0          
O        O      0.838733333333     0.881133333333     0.350100000000     0          
O        O      0.823400000000     0.888733333333     0.252900000000     0          
O        O      0.719866666667     0.812300000000     0.333200000000     0          
O        O      0.778533333333     0.776000000000     0.323300000000     0          
O        O      0.717700000000     0.743000000000     0.332000000000     0          
O        O      0.837166666667     0.812933333333     0.331400000000     0          
O        O      0.839700000000     0.743633333333     0.331200000000     0          
O        O      0.722300000000     0.720366666667     0.559400000000     0          
O        O      0.666666666667     0.724466666667     0.500000000000     0          
O        O      0.992000000000     0.716700000000     0.599100000000     0          
O        O      0.682000000000     0.776833333333     0.562100000000     0          
O        O      0.721900000000     0.833666666667     0.560300000000     0          
O        O      0.666666666667     0.829233333333     0.500000000000     0          
O        O      0.991333333333     0.836866666667     0.598800000000     0          
O        O      0.786066666667     0.715033333333     0.598700000000     0          
O        O      0.760633333333     0.777066666667     0.573800000000     0          
O        O      0.778066666667     0.732200000000     0.501900000000     0          
O        O      0.785533333333     0.838733333333     0.600100000000     0          
O        O      0.777933333333     0.823400000000     0.502900000000     0          
O        O      0.854366666667     0.719866666667     0.583200000000     0          
O        O      0.890666666667     0.778533333333     0.573300000000     0          
O        O      0.923666666667     0.717700000000     0.582000000000     0          
O        O      0.853733333333     0.837166666667     0.581400000000     0          
O        O      0.923033333333     0.839700000000     0.581200000000     0          
O        O      0.946300000000     0.722300000000     0.809400000000     0          
O        O      0.942200000000     0.666666666667     0.750000000000     0          
O        O      0.949966666667     0.992000000000     0.849100000000     0          
O        O      0.889833333333     0.682000000000     0.812100000000     0          
O        O      0.833000000000     0.721900000000     0.810300000000     0          
O        O      0.837433333333     0.666666666667     0.750000000000     0          
O        O      0.829800000000     0.991333333333     0.848800000000     0          
O        O      0.951633333333     0.786066666667     0.848700000000     0          
O        O      0.889600000000     0.760633333333     0.823800000000     0          
O        O      0.934466666667     0.778066666667     0.751900000000     0          
O        O      0.827933333333     0.785533333333     0.850100000000     0          
O        O      0.843266666667     0.777933333333     0.752900000000     0          
O        O      0.946800000000     0.854366666667     0.833200000000     0          
O        O      0.888133333333     0.890666666667     0.823300000000     0          
O        O      0.948966666667     0.923666666667     0.832000000000     0          
O        O      0.829500000000     0.853733333333     0.831400000000     0          
O        O      0.826966666667     0.923033333333     0.831200000000     0          
O        O      0.944366666667     0.720366666667     0.440600000000     0          
O        O      0.674666666667     0.716700000000     0.400900000000     0          
O        O      0.984666666667     0.776833333333     0.437900000000     0          
O        O      0.944766666667     0.833666666667     0.439700000000     0          
O        O      0.675333333333     0.836866666667     0.401200000000     0          
O        O      0.880600000000     0.715033333333     0.401300000000     0          
O        O      0.906033333333     0.777066666667     0.426200000000     0          
O        O      0.888600000000     0.732200000000     0.498100000000     0          
O        O      0.881133333333     0.838733333333     0.399900000000     0          
O        O      0.888733333333     0.823400000000     0.497100000000     0          
O        O      0.812300000000     0.719866666667     0.416800000000     0          
O        O      0.776000000000     0.778533333333     0.426700000000     0          
O        O      0.743000000000     0.717700000000     0.418000000000     0          
O        O      0.812933333333     0.837166666667     0.418600000000     0          
O        O      0.743633333333     0.839700000000     0.418800000000     0          
O        O      0.946300000000     0.944366666667     0.690600000000     0          
O        O      0.949966666667     0.674666666667     0.650900000000     0          
O        O      0.889833333333     0.984666666667     0.687900000000     0          
O        O      0.833000000000     0.944766666667     0.689700000000     0          
O        O      0.829800000000     0.675333333333     0.651200000000     0          
O        O      0.951633333333     0.880600000000     0.651300000000     0          
O        O      0.889600000000     0.906033333333     0.676200000000     0          
O        O      0.934466666667     0.888600000000     0.748100000000     0          
O        O      0.827933333333     0.881133333333     0.649900000000     0          
O        O      0.843266666667     0.888733333333     0.747100000000     0          
O        O      0.946800000000     0.812300000000     0.666800000000     0          
O        O      0.888133333333     0.776000000000     0.676700000000     0          
O        O      0.948966666667     0.743000000000     0.668000000000     0          
O        O      0.829500000000     0.812933333333     0.668600000000     0          
O        O      0.826966666667     0.743633333333     0.668800000000     0          
O        O      0.722300000000     0.946300000000     0.940600000000     0          
O        O      0.992000000000     0.949966666667     0.900900000000     0          
O        O      0.682000000000     0.889833333333     0.937900000000     0          
O        O      0.721900000000     0.833000000000     0.939700000000     0          
O        O      0.991333333333     0.829800000000     0.901200000000     0          
O        O      0.786066666667     0.951633333333     0.901300000000     0          
O        O      0.760633333333     0.889600000000     0.926200000000     0          
O        O      0.778066666667     0.934466666667     0.998100000000     0          
O        O      0.785533333333     0.827933333333     0.899900000000     0          
O        O      0.777933333333     0.843266666667     0.997100000000     0          
O        O      0.854366666667     0.946800000000     0.916800000000     0          
O        O      0.890666666667     0.888133333333     0.926700000000     0          
O        O      0.923666666667     0.948966666667     0.918000000000     0          
O        O      0.853733333333     0.829500000000     0.918600000000     0          
O        O      0.923033333333     0.826966666667     0.918800000000     0          
O        O      0.720366666667     0.722300000000     0.190600000000     0          
O        O      0.716700000000     0.992000000000     0.150900000000     0          
O        O      0.776833333333     0.682000000000     0.187900000000     0          
O        O      0.833666666667     0.721900000000     0.189700000000     0          
O        O      0.836866666667     0.991333333333     0.151200000000     0          
O        O      0.715033333333     0.786066666667     0.151300000000     0          
O        O      0.777066666667     0.760633333333     0.176200000000     0          
O        O      0.732200000000     0.778066666667     0.248100000000     0          
O        O      0.838733333333     0.785533333333     0.149900000000     0          
O        O      0.823400000000     0.777933333333     0.247100000000     0          
O        O      0.719866666667     0.854366666667     0.166800000000     0          
O        O      0.778533333333     0.890666666667     0.176700000000     0          
O        O      0.717700000000     0.923666666667     0.168000000000     0          
O        O      0.837166666667     0.853733333333     0.168600000000     0          
O        O      0.839700000000     0.923033333333     0.168800000000     0          


