data_zeolite

_audit_creation_method RASPA-1.0
_audit_creation_date 2021-6-7
_audit_author_name ''

_cell_length_a    27.766
_cell_length_b    27.766
_cell_length_c    27.766
_cell_angle_alpha 90
_cell_angle_beta  90
_cell_angle_gamma 90
_cell_volume      21406.2

_symmetry_cell_setting          cubic
_symmetry_space_group_name_Hall 'P 1'
_symmetry_space_group_name_H-M  'P 1'
_symmetry_Int_Tables_number     1

_symmetry_equiv_pos_as_xyz 'x,y,z'

loop_
_atom_site_label
_atom_site_type_symbol
_atom_site_fract_x
_atom_site_fract_y
_atom_site_fract_z
_atom_site_charge
O        O      0.138000000000     0.138000000000     0.250000000000     0          
O        O      0.167400000000     0.100950000000     0.167400000000     0          
O        O      0.080900000000     0.080900000000     0.202800000000     0          
O        O      0.067200000000     0.000000000000     0.250000000000     0          
T        Si     0.121750000000     0.121750000000     0.196650000000     0          
T        Si     0.056950000000     0.056950000000     0.250000000000     0          
O        O      0.362000000000     0.138000000000     0.250000000000     0          
O        O      0.399050000000     0.167400000000     0.167400000000     0          
O        O      0.419100000000     0.080900000000     0.202800000000     0          
O        O      0.000000000000     0.067200000000     0.250000000000     0          
T        Si     0.378250000000     0.121750000000     0.196650000000     0          
T        Si     0.443050000000     0.056950000000     0.250000000000     0          
O        O      0.362000000000     0.362000000000     0.250000000000     0          
O        O      0.332600000000     0.399050000000     0.167400000000     0          
O        O      0.419100000000     0.419100000000     0.202800000000     0          
O        O      0.432800000000     0.000000000000     0.250000000000     0          
T        Si     0.378250000000     0.378250000000     0.196650000000     0          
T        Si     0.443050000000     0.443050000000     0.250000000000     0          
O        O      0.138000000000     0.362000000000     0.250000000000     0          
O        O      0.100950000000     0.332600000000     0.167400000000     0          
O        O      0.080900000000     0.419100000000     0.202800000000     0          
O        O      0.000000000000     0.432800000000     0.250000000000     0          
T        Si     0.121750000000     0.378250000000     0.196650000000     0          
T        Si     0.056950000000     0.443050000000     0.250000000000     0          
O        O      0.167400000000     0.399050000000     0.332600000000     0          
O        O      0.080900000000     0.419100000000     0.297200000000     0          
T        Si     0.121750000000     0.378250000000     0.303350000000     0          
O        O      0.100950000000     0.167400000000     0.332600000000     0          
O        O      0.080900000000     0.080900000000     0.297200000000     0          
T        Si     0.121750000000     0.121750000000     0.303350000000     0          
O        O      0.332600000000     0.100950000000     0.332600000000     0          
O        O      0.419100000000     0.080900000000     0.297200000000     0          
T        Si     0.378250000000     0.121750000000     0.303350000000     0          
O        O      0.399050000000     0.332600000000     0.332600000000     0          
O        O      0.419100000000     0.419100000000     0.297200000000     0          
T        Si     0.378250000000     0.378250000000     0.303350000000     0          
O        O      0.250000000000     0.138000000000     0.138000000000     0          
O        O      0.167400000000     0.167400000000     0.100950000000     0          
O        O      0.202800000000     0.080900000000     0.080900000000     0          
O        O      0.250000000000     0.067200000000     0.000000000000     0          
T        Si     0.196650000000     0.121750000000     0.121750000000     0          
T        Si     0.250000000000     0.056950000000     0.056950000000     0          
O        O      0.362000000000     0.250000000000     0.138000000000     0          
O        O      0.332600000000     0.167400000000     0.100950000000     0          
O        O      0.419100000000     0.202800000000     0.080900000000     0          
O        O      0.432800000000     0.250000000000     0.000000000000     0          
T        Si     0.378250000000     0.196650000000     0.121750000000     0          
T        Si     0.443050000000     0.250000000000     0.056950000000     0          
O        O      0.250000000000     0.362000000000     0.138000000000     0          
O        O      0.332600000000     0.332600000000     0.100950000000     0          
O        O      0.297200000000     0.419100000000     0.080900000000     0          
O        O      0.250000000000     0.432800000000     0.000000000000     0          
T        Si     0.303350000000     0.378250000000     0.121750000000     0          
T        Si     0.250000000000     0.443050000000     0.056950000000     0          
O        O      0.138000000000     0.250000000000     0.138000000000     0          
O        O      0.167400000000     0.332600000000     0.100950000000     0          
O        O      0.080900000000     0.297200000000     0.080900000000     0          
O        O      0.067200000000     0.250000000000     0.000000000000     0          
T        Si     0.121750000000     0.303350000000     0.121750000000     0          
T        Si     0.056950000000     0.250000000000     0.056950000000     0          
O        O      0.250000000000     0.362000000000     0.362000000000     0          
O        O      0.167400000000     0.332600000000     0.399050000000     0          
O        O      0.202800000000     0.419100000000     0.419100000000     0          
T        Si     0.196650000000     0.378250000000     0.378250000000     0          
T        Si     0.250000000000     0.443050000000     0.443050000000     0          
O        O      0.138000000000     0.250000000000     0.362000000000     0          
O        O      0.167400000000     0.167400000000     0.399050000000     0          
O        O      0.080900000000     0.202800000000     0.419100000000     0          
T        Si     0.121750000000     0.196650000000     0.378250000000     0          
T        Si     0.056950000000     0.250000000000     0.443050000000     0          
O        O      0.250000000000     0.138000000000     0.362000000000     0          
O        O      0.332600000000     0.167400000000     0.399050000000     0          
O        O      0.297200000000     0.080900000000     0.419100000000     0          
T        Si     0.303350000000     0.121750000000     0.378250000000     0          
T        Si     0.250000000000     0.056950000000     0.443050000000     0          
O        O      0.362000000000     0.250000000000     0.362000000000     0          
O        O      0.332600000000     0.332600000000     0.399050000000     0          
O        O      0.419100000000     0.297200000000     0.419100000000     0          
T        Si     0.378250000000     0.303350000000     0.378250000000     0          
T        Si     0.443050000000     0.250000000000     0.443050000000     0          
O        O      0.100950000000     0.167400000000     0.167400000000     0          
O        O      0.080900000000     0.202800000000     0.080900000000     0          
O        O      0.000000000000     0.250000000000     0.067200000000     0          
T        Si     0.121750000000     0.196650000000     0.121750000000     0          
O        O      0.100950000000     0.332600000000     0.332600000000     0          
O        O      0.080900000000     0.297200000000     0.419100000000     0          
O        O      0.000000000000     0.250000000000     0.432800000000     0          
T        Si     0.121750000000     0.303350000000     0.378250000000     0          
O        O      0.167400000000     0.100950000000     0.332600000000     0          
O        O      0.202800000000     0.080900000000     0.419100000000     0          
O        O      0.250000000000     0.000000000000     0.432800000000     0          
T        Si     0.196650000000     0.121750000000     0.378250000000     0          
O        O      0.399050000000     0.167400000000     0.332600000000     0          
O        O      0.419100000000     0.202800000000     0.419100000000     0          
T        Si     0.378250000000     0.196650000000     0.378250000000     0          
O        O      0.332600000000     0.399050000000     0.332600000000     0          
O        O      0.297200000000     0.419100000000     0.419100000000     0          
T        Si     0.303350000000     0.378250000000     0.378250000000     0          
O        O      0.399050000000     0.332600000000     0.167400000000     0          
O        O      0.419100000000     0.297200000000     0.080900000000     0          
T        Si     0.378250000000     0.303350000000     0.121750000000     0          
O        O      0.167400000000     0.399050000000     0.167400000000     0          
O        O      0.202800000000     0.419100000000     0.080900000000     0          
O        O      0.250000000000     0.000000000000     0.067200000000     0          
T        Si     0.196650000000     0.378250000000     0.121750000000     0          
O        O      0.332600000000     0.100950000000     0.167400000000     0          
O        O      0.297200000000     0.080900000000     0.080900000000     0          
T        Si     0.303350000000     0.121750000000     0.121750000000     0          
O        O      0.138000000000     0.138000000000     0.750000000000     0          
O        O      0.167400000000     0.100950000000     0.667400000000     0          
O        O      0.080900000000     0.080900000000     0.702800000000     0          
O        O      0.067200000000     0.000000000000     0.750000000000     0          
T        Si     0.121750000000     0.121750000000     0.696650000000     0          
T        Si     0.056950000000     0.056950000000     0.750000000000     0          
O        O      0.362000000000     0.138000000000     0.750000000000     0          
O        O      0.399050000000     0.167400000000     0.667400000000     0          
O        O      0.419100000000     0.080900000000     0.702800000000     0          
O        O      0.000000000000     0.067200000000     0.750000000000     0          
T        Si     0.378250000000     0.121750000000     0.696650000000     0          
T        Si     0.443050000000     0.056950000000     0.750000000000     0          
O        O      0.362000000000     0.362000000000     0.750000000000     0          
O        O      0.332600000000     0.399050000000     0.667400000000     0          
O        O      0.419100000000     0.419100000000     0.702800000000     0          
O        O      0.432800000000     0.000000000000     0.750000000000     0          
T        Si     0.378250000000     0.378250000000     0.696650000000     0          
T        Si     0.443050000000     0.443050000000     0.750000000000     0          
O        O      0.138000000000     0.362000000000     0.750000000000     0          
O        O      0.100950000000     0.332600000000     0.667400000000     0          
O        O      0.080900000000     0.419100000000     0.702800000000     0          
O        O      0.000000000000     0.432800000000     0.750000000000     0          
T        Si     0.121750000000     0.378250000000     0.696650000000     0          
T        Si     0.056950000000     0.443050000000     0.750000000000     0          
O        O      0.167400000000     0.399050000000     0.832600000000     0          
O        O      0.080900000000     0.419100000000     0.797200000000     0          
T        Si     0.121750000000     0.378250000000     0.803350000000     0          
O        O      0.100950000000     0.167400000000     0.832600000000     0          
O        O      0.080900000000     0.080900000000     0.797200000000     0          
T        Si     0.121750000000     0.121750000000     0.803350000000     0          
O        O      0.332600000000     0.100950000000     0.832600000000     0          
O        O      0.419100000000     0.080900000000     0.797200000000     0          
T        Si     0.378250000000     0.121750000000     0.803350000000     0          
O        O      0.399050000000     0.332600000000     0.832600000000     0          
O        O      0.419100000000     0.419100000000     0.797200000000     0          
T        Si     0.378250000000     0.378250000000     0.803350000000     0          
O        O      0.250000000000     0.138000000000     0.638000000000     0          
O        O      0.167400000000     0.167400000000     0.600950000000     0          
O        O      0.202800000000     0.080900000000     0.580900000000     0          
O        O      0.250000000000     0.067200000000     0.500000000000     0          
T        Si     0.196650000000     0.121750000000     0.621750000000     0          
T        Si     0.250000000000     0.056950000000     0.556950000000     0          
O        O      0.362000000000     0.250000000000     0.638000000000     0          
O        O      0.332600000000     0.167400000000     0.600950000000     0          
O        O      0.419100000000     0.202800000000     0.580900000000     0          
O        O      0.432800000000     0.250000000000     0.500000000000     0          
T        Si     0.378250000000     0.196650000000     0.621750000000     0          
T        Si     0.443050000000     0.250000000000     0.556950000000     0          
O        O      0.250000000000     0.362000000000     0.638000000000     0          
O        O      0.332600000000     0.332600000000     0.600950000000     0          
O        O      0.297200000000     0.419100000000     0.580900000000     0          
O        O      0.250000000000     0.432800000000     0.500000000000     0          
T        Si     0.303350000000     0.378250000000     0.621750000000     0          
T        Si     0.250000000000     0.443050000000     0.556950000000     0          
O        O      0.138000000000     0.250000000000     0.638000000000     0          
O        O      0.167400000000     0.332600000000     0.600950000000     0          
O        O      0.080900000000     0.297200000000     0.580900000000     0          
O        O      0.067200000000     0.250000000000     0.500000000000     0          
T        Si     0.121750000000     0.303350000000     0.621750000000     0          
T        Si     0.056950000000     0.250000000000     0.556950000000     0          
O        O      0.250000000000     0.362000000000     0.862000000000     0          
O        O      0.167400000000     0.332600000000     0.899050000000     0          
O        O      0.202800000000     0.419100000000     0.919100000000     0          
T        Si     0.196650000000     0.378250000000     0.878250000000     0          
T        Si     0.250000000000     0.443050000000     0.943050000000     0          
O        O      0.138000000000     0.250000000000     0.862000000000     0          
O        O      0.167400000000     0.167400000000     0.899050000000     0          
O        O      0.080900000000     0.202800000000     0.919100000000     0          
T        Si     0.121750000000     0.196650000000     0.878250000000     0          
T        Si     0.056950000000     0.250000000000     0.943050000000     0          
O        O      0.250000000000     0.138000000000     0.862000000000     0          
O        O      0.332600000000     0.167400000000     0.899050000000     0          
O        O      0.297200000000     0.080900000000     0.919100000000     0          
T        Si     0.303350000000     0.121750000000     0.878250000000     0          
T        Si     0.250000000000     0.056950000000     0.943050000000     0          
O        O      0.362000000000     0.250000000000     0.862000000000     0          
O        O      0.332600000000     0.332600000000     0.899050000000     0          
O        O      0.419100000000     0.297200000000     0.919100000000     0          
T        Si     0.378250000000     0.303350000000     0.878250000000     0          
T        Si     0.443050000000     0.250000000000     0.943050000000     0          
O        O      0.100950000000     0.167400000000     0.667400000000     0          
O        O      0.080900000000     0.202800000000     0.580900000000     0          
O        O      0.000000000000     0.250000000000     0.567200000000     0          
T        Si     0.121750000000     0.196650000000     0.621750000000     0          
O        O      0.100950000000     0.332600000000     0.832600000000     0          
O        O      0.080900000000     0.297200000000     0.919100000000     0          
O        O      0.000000000000     0.250000000000     0.932800000000     0          
T        Si     0.121750000000     0.303350000000     0.878250000000     0          
O        O      0.167400000000     0.100950000000     0.832600000000     0          
O        O      0.202800000000     0.080900000000     0.919100000000     0          
O        O      0.250000000000     0.000000000000     0.932800000000     0          
T        Si     0.196650000000     0.121750000000     0.878250000000     0          
O        O      0.399050000000     0.167400000000     0.832600000000     0          
O        O      0.419100000000     0.202800000000     0.919100000000     0          
T        Si     0.378250000000     0.196650000000     0.878250000000     0          
O        O      0.332600000000     0.399050000000     0.832600000000     0          
O        O      0.297200000000     0.419100000000     0.919100000000     0          
T        Si     0.303350000000     0.378250000000     0.878250000000     0          
O        O      0.399050000000     0.332600000000     0.667400000000     0          
O        O      0.419100000000     0.297200000000     0.580900000000     0          
T        Si     0.378250000000     0.303350000000     0.621750000000     0          
O        O      0.167400000000     0.399050000000     0.667400000000     0          
O        O      0.202800000000     0.419100000000     0.580900000000     0          
O        O      0.250000000000     0.000000000000     0.567200000000     0          
T        Si     0.196650000000     0.378250000000     0.621750000000     0          
O        O      0.332600000000     0.100950000000     0.667400000000     0          
O        O      0.297200000000     0.080900000000     0.580900000000     0          
T        Si     0.303350000000     0.121750000000     0.621750000000     0          
O        O      0.138000000000     0.638000000000     0.250000000000     0          
O        O      0.167400000000     0.600950000000     0.167400000000     0          
O        O      0.080900000000     0.580900000000     0.202800000000     0          
O        O      0.067200000000     0.500000000000     0.250000000000     0          
T        Si     0.121750000000     0.621750000000     0.196650000000     0          
T        Si     0.056950000000     0.556950000000     0.250000000000     0          
O        O      0.362000000000     0.638000000000     0.250000000000     0          
O        O      0.399050000000     0.667400000000     0.167400000000     0          
O        O      0.419100000000     0.580900000000     0.202800000000     0          
O        O      0.000000000000     0.567200000000     0.250000000000     0          
T        Si     0.378250000000     0.621750000000     0.196650000000     0          
T        Si     0.443050000000     0.556950000000     0.250000000000     0          
O        O      0.362000000000     0.862000000000     0.250000000000     0          
O        O      0.332600000000     0.899050000000     0.167400000000     0          
O        O      0.419100000000     0.919100000000     0.202800000000     0          
O        O      0.432800000000     0.500000000000     0.250000000000     0          
T        Si     0.378250000000     0.878250000000     0.196650000000     0          
T        Si     0.443050000000     0.943050000000     0.250000000000     0          
O        O      0.138000000000     0.862000000000     0.250000000000     0          
O        O      0.100950000000     0.832600000000     0.167400000000     0          
O        O      0.080900000000     0.919100000000     0.202800000000     0          
O        O      0.000000000000     0.932800000000     0.250000000000     0          
T        Si     0.121750000000     0.878250000000     0.196650000000     0          
T        Si     0.056950000000     0.943050000000     0.250000000000     0          
O        O      0.167400000000     0.899050000000     0.332600000000     0          
O        O      0.080900000000     0.919100000000     0.297200000000     0          
T        Si     0.121750000000     0.878250000000     0.303350000000     0          
O        O      0.100950000000     0.667400000000     0.332600000000     0          
O        O      0.080900000000     0.580900000000     0.297200000000     0          
T        Si     0.121750000000     0.621750000000     0.303350000000     0          
O        O      0.332600000000     0.600950000000     0.332600000000     0          
O        O      0.419100000000     0.580900000000     0.297200000000     0          
T        Si     0.378250000000     0.621750000000     0.303350000000     0          
O        O      0.399050000000     0.832600000000     0.332600000000     0          
O        O      0.419100000000     0.919100000000     0.297200000000     0          
T        Si     0.378250000000     0.878250000000     0.303350000000     0          
O        O      0.250000000000     0.638000000000     0.138000000000     0          
O        O      0.167400000000     0.667400000000     0.100950000000     0          
O        O      0.202800000000     0.580900000000     0.080900000000     0          
O        O      0.250000000000     0.567200000000     0.000000000000     0          
T        Si     0.196650000000     0.621750000000     0.121750000000     0          
T        Si     0.250000000000     0.556950000000     0.056950000000     0          
O        O      0.362000000000     0.750000000000     0.138000000000     0          
O        O      0.332600000000     0.667400000000     0.100950000000     0          
O        O      0.419100000000     0.702800000000     0.080900000000     0          
O        O      0.432800000000     0.750000000000     0.000000000000     0          
T        Si     0.378250000000     0.696650000000     0.121750000000     0          
T        Si     0.443050000000     0.750000000000     0.056950000000     0          
O        O      0.250000000000     0.862000000000     0.138000000000     0          
O        O      0.332600000000     0.832600000000     0.100950000000     0          
O        O      0.297200000000     0.919100000000     0.080900000000     0          
O        O      0.250000000000     0.932800000000     0.000000000000     0          
T        Si     0.303350000000     0.878250000000     0.121750000000     0          
T        Si     0.250000000000     0.943050000000     0.056950000000     0          
O        O      0.138000000000     0.750000000000     0.138000000000     0          
O        O      0.167400000000     0.832600000000     0.100950000000     0          
O        O      0.080900000000     0.797200000000     0.080900000000     0          
O        O      0.067200000000     0.750000000000     0.000000000000     0          
T        Si     0.121750000000     0.803350000000     0.121750000000     0          
T        Si     0.056950000000     0.750000000000     0.056950000000     0          
O        O      0.250000000000     0.862000000000     0.362000000000     0          
O        O      0.167400000000     0.832600000000     0.399050000000     0          
O        O      0.202800000000     0.919100000000     0.419100000000     0          
T        Si     0.196650000000     0.878250000000     0.378250000000     0          
T        Si     0.250000000000     0.943050000000     0.443050000000     0          
O        O      0.138000000000     0.750000000000     0.362000000000     0          
O        O      0.167400000000     0.667400000000     0.399050000000     0          
O        O      0.080900000000     0.702800000000     0.419100000000     0          
T        Si     0.121750000000     0.696650000000     0.378250000000     0          
T        Si     0.056950000000     0.750000000000     0.443050000000     0          
O        O      0.250000000000     0.638000000000     0.362000000000     0          
O        O      0.332600000000     0.667400000000     0.399050000000     0          
O        O      0.297200000000     0.580900000000     0.419100000000     0          
T        Si     0.303350000000     0.621750000000     0.378250000000     0          
T        Si     0.250000000000     0.556950000000     0.443050000000     0          
O        O      0.362000000000     0.750000000000     0.362000000000     0          
O        O      0.332600000000     0.832600000000     0.399050000000     0          
O        O      0.419100000000     0.797200000000     0.419100000000     0          
T        Si     0.378250000000     0.803350000000     0.378250000000     0          
T        Si     0.443050000000     0.750000000000     0.443050000000     0          
O        O      0.100950000000     0.667400000000     0.167400000000     0          
O        O      0.080900000000     0.702800000000     0.080900000000     0          
O        O      0.000000000000     0.750000000000     0.067200000000     0          
T        Si     0.121750000000     0.696650000000     0.121750000000     0          
O        O      0.100950000000     0.832600000000     0.332600000000     0          
O        O      0.080900000000     0.797200000000     0.419100000000     0          
O        O      0.000000000000     0.750000000000     0.432800000000     0          
T        Si     0.121750000000     0.803350000000     0.378250000000     0          
O        O      0.167400000000     0.600950000000     0.332600000000     0          
O        O      0.202800000000     0.580900000000     0.419100000000     0          
O        O      0.250000000000     0.500000000000     0.432800000000     0          
T        Si     0.196650000000     0.621750000000     0.378250000000     0          
O        O      0.399050000000     0.667400000000     0.332600000000     0          
O        O      0.419100000000     0.702800000000     0.419100000000     0          
T        Si     0.378250000000     0.696650000000     0.378250000000     0          
O        O      0.332600000000     0.899050000000     0.332600000000     0          
O        O      0.297200000000     0.919100000000     0.419100000000     0          
T        Si     0.303350000000     0.878250000000     0.378250000000     0          
O        O      0.399050000000     0.832600000000     0.167400000000     0          
O        O      0.419100000000     0.797200000000     0.080900000000     0          
T        Si     0.378250000000     0.803350000000     0.121750000000     0          
O        O      0.167400000000     0.899050000000     0.167400000000     0          
O        O      0.202800000000     0.919100000000     0.080900000000     0          
O        O      0.250000000000     0.500000000000     0.067200000000     0          
T        Si     0.196650000000     0.878250000000     0.121750000000     0          
O        O      0.332600000000     0.600950000000     0.167400000000     0          
O        O      0.297200000000     0.580900000000     0.080900000000     0          
T        Si     0.303350000000     0.621750000000     0.121750000000     0          
O        O      0.138000000000     0.638000000000     0.750000000000     0          
O        O      0.167400000000     0.600950000000     0.667400000000     0          
O        O      0.080900000000     0.580900000000     0.702800000000     0          
O        O      0.067200000000     0.500000000000     0.750000000000     0          
T        Si     0.121750000000     0.621750000000     0.696650000000     0          
T        Si     0.056950000000     0.556950000000     0.750000000000     0          
O        O      0.362000000000     0.638000000000     0.750000000000     0          
O        O      0.399050000000     0.667400000000     0.667400000000     0          
O        O      0.419100000000     0.580900000000     0.702800000000     0          
O        O      0.000000000000     0.567200000000     0.750000000000     0          
T        Si     0.378250000000     0.621750000000     0.696650000000     0          
T        Si     0.443050000000     0.556950000000     0.750000000000     0          
O        O      0.362000000000     0.862000000000     0.750000000000     0          
O        O      0.332600000000     0.899050000000     0.667400000000     0          
O        O      0.419100000000     0.919100000000     0.702800000000     0          
O        O      0.432800000000     0.500000000000     0.750000000000     0          
T        Si     0.378250000000     0.878250000000     0.696650000000     0          
T        Si     0.443050000000     0.943050000000     0.750000000000     0          
O        O      0.138000000000     0.862000000000     0.750000000000     0          
O        O      0.100950000000     0.832600000000     0.667400000000     0          
O        O      0.080900000000     0.919100000000     0.702800000000     0          
O        O      0.000000000000     0.932800000000     0.750000000000     0          
T        Si     0.121750000000     0.878250000000     0.696650000000     0          
T        Si     0.056950000000     0.943050000000     0.750000000000     0          
O        O      0.167400000000     0.899050000000     0.832600000000     0          
O        O      0.080900000000     0.919100000000     0.797200000000     0          
T        Si     0.121750000000     0.878250000000     0.803350000000     0          
O        O      0.100950000000     0.667400000000     0.832600000000     0          
O        O      0.080900000000     0.580900000000     0.797200000000     0          
T        Si     0.121750000000     0.621750000000     0.803350000000     0          
O        O      0.332600000000     0.600950000000     0.832600000000     0          
O        O      0.419100000000     0.580900000000     0.797200000000     0          
T        Si     0.378250000000     0.621750000000     0.803350000000     0          
O        O      0.399050000000     0.832600000000     0.832600000000     0          
O        O      0.419100000000     0.919100000000     0.797200000000     0          
T        Si     0.378250000000     0.878250000000     0.803350000000     0          
O        O      0.250000000000     0.638000000000     0.638000000000     0          
O        O      0.167400000000     0.667400000000     0.600950000000     0          
O        O      0.202800000000     0.580900000000     0.580900000000     0          
O        O      0.250000000000     0.567200000000     0.500000000000     0          
T        Si     0.196650000000     0.621750000000     0.621750000000     0          
T        Si     0.250000000000     0.556950000000     0.556950000000     0          
O        O      0.362000000000     0.750000000000     0.638000000000     0          
O        O      0.332600000000     0.667400000000     0.600950000000     0          
O        O      0.419100000000     0.702800000000     0.580900000000     0          
O        O      0.432800000000     0.750000000000     0.500000000000     0          
T        Si     0.378250000000     0.696650000000     0.621750000000     0          
T        Si     0.443050000000     0.750000000000     0.556950000000     0          
O        O      0.250000000000     0.862000000000     0.638000000000     0          
O        O      0.332600000000     0.832600000000     0.600950000000     0          
O        O      0.297200000000     0.919100000000     0.580900000000     0          
O        O      0.250000000000     0.932800000000     0.500000000000     0          
T        Si     0.303350000000     0.878250000000     0.621750000000     0          
T        Si     0.250000000000     0.943050000000     0.556950000000     0          
O        O      0.138000000000     0.750000000000     0.638000000000     0          
O        O      0.167400000000     0.832600000000     0.600950000000     0          
O        O      0.080900000000     0.797200000000     0.580900000000     0          
O        O      0.067200000000     0.750000000000     0.500000000000     0          
T        Si     0.121750000000     0.803350000000     0.621750000000     0          
T        Si     0.056950000000     0.750000000000     0.556950000000     0          
O        O      0.250000000000     0.862000000000     0.862000000000     0          
O        O      0.167400000000     0.832600000000     0.899050000000     0          
O        O      0.202800000000     0.919100000000     0.919100000000     0          
T        Si     0.196650000000     0.878250000000     0.878250000000     0          
T        Si     0.250000000000     0.943050000000     0.943050000000     0          
O        O      0.138000000000     0.750000000000     0.862000000000     0          
O        O      0.167400000000     0.667400000000     0.899050000000     0          
O        O      0.080900000000     0.702800000000     0.919100000000     0          
T        Si     0.121750000000     0.696650000000     0.878250000000     0          
T        Si     0.056950000000     0.750000000000     0.943050000000     0          
O        O      0.250000000000     0.638000000000     0.862000000000     0          
O        O      0.332600000000     0.667400000000     0.899050000000     0          
O        O      0.297200000000     0.580900000000     0.919100000000     0          
T        Si     0.303350000000     0.621750000000     0.878250000000     0          
T        Si     0.250000000000     0.556950000000     0.943050000000     0          
O        O      0.362000000000     0.750000000000     0.862000000000     0          
O        O      0.332600000000     0.832600000000     0.899050000000     0          
O        O      0.419100000000     0.797200000000     0.919100000000     0          
T        Si     0.378250000000     0.803350000000     0.878250000000     0          
T        Si     0.443050000000     0.750000000000     0.943050000000     0          
O        O      0.100950000000     0.667400000000     0.667400000000     0          
O        O      0.080900000000     0.702800000000     0.580900000000     0          
O        O      0.000000000000     0.750000000000     0.567200000000     0          
T        Si     0.121750000000     0.696650000000     0.621750000000     0          
O        O      0.100950000000     0.832600000000     0.832600000000     0          
O        O      0.080900000000     0.797200000000     0.919100000000     0          
O        O      0.000000000000     0.750000000000     0.932800000000     0          
T        Si     0.121750000000     0.803350000000     0.878250000000     0          
O        O      0.167400000000     0.600950000000     0.832600000000     0          
O        O      0.202800000000     0.580900000000     0.919100000000     0          
O        O      0.250000000000     0.500000000000     0.932800000000     0          
T        Si     0.196650000000     0.621750000000     0.878250000000     0          
O        O      0.399050000000     0.667400000000     0.832600000000     0          
O        O      0.419100000000     0.702800000000     0.919100000000     0          
T        Si     0.378250000000     0.696650000000     0.878250000000     0          
O        O      0.332600000000     0.899050000000     0.832600000000     0          
O        O      0.297200000000     0.919100000000     0.919100000000     0          
T        Si     0.303350000000     0.878250000000     0.878250000000     0          
O        O      0.399050000000     0.832600000000     0.667400000000     0          
O        O      0.419100000000     0.797200000000     0.580900000000     0          
T        Si     0.378250000000     0.803350000000     0.621750000000     0          
O        O      0.167400000000     0.899050000000     0.667400000000     0          
O        O      0.202800000000     0.919100000000     0.580900000000     0          
O        O      0.250000000000     0.500000000000     0.567200000000     0          
T        Si     0.196650000000     0.878250000000     0.621750000000     0          
O        O      0.332600000000     0.600950000000     0.667400000000     0          
O        O      0.297200000000     0.580900000000     0.580900000000     0          
T        Si     0.303350000000     0.621750000000     0.621750000000     0          
O        O      0.638000000000     0.138000000000     0.250000000000     0          
O        O      0.667400000000     0.100950000000     0.167400000000     0          
O        O      0.580900000000     0.080900000000     0.202800000000     0          
O        O      0.567200000000     0.000000000000     0.250000000000     0          
T        Si     0.621750000000     0.121750000000     0.196650000000     0          
T        Si     0.556950000000     0.056950000000     0.250000000000     0          
O        O      0.862000000000     0.138000000000     0.250000000000     0          
O        O      0.899050000000     0.167400000000     0.167400000000     0          
O        O      0.919100000000     0.080900000000     0.202800000000     0          
O        O      0.500000000000     0.067200000000     0.250000000000     0          
T        Si     0.878250000000     0.121750000000     0.196650000000     0          
T        Si     0.943050000000     0.056950000000     0.250000000000     0          
O        O      0.862000000000     0.362000000000     0.250000000000     0          
O        O      0.832600000000     0.399050000000     0.167400000000     0          
O        O      0.919100000000     0.419100000000     0.202800000000     0          
O        O      0.932800000000     0.000000000000     0.250000000000     0          
T        Si     0.878250000000     0.378250000000     0.196650000000     0          
T        Si     0.943050000000     0.443050000000     0.250000000000     0          
O        O      0.638000000000     0.362000000000     0.250000000000     0          
O        O      0.600950000000     0.332600000000     0.167400000000     0          
O        O      0.580900000000     0.419100000000     0.202800000000     0          
O        O      0.500000000000     0.432800000000     0.250000000000     0          
T        Si     0.621750000000     0.378250000000     0.196650000000     0          
T        Si     0.556950000000     0.443050000000     0.250000000000     0          
O        O      0.667400000000     0.399050000000     0.332600000000     0          
O        O      0.580900000000     0.419100000000     0.297200000000     0          
T        Si     0.621750000000     0.378250000000     0.303350000000     0          
O        O      0.600950000000     0.167400000000     0.332600000000     0          
O        O      0.580900000000     0.080900000000     0.297200000000     0          
T        Si     0.621750000000     0.121750000000     0.303350000000     0          
O        O      0.832600000000     0.100950000000     0.332600000000     0          
O        O      0.919100000000     0.080900000000     0.297200000000     0          
T        Si     0.878250000000     0.121750000000     0.303350000000     0          
O        O      0.899050000000     0.332600000000     0.332600000000     0          
O        O      0.919100000000     0.419100000000     0.297200000000     0          
T        Si     0.878250000000     0.378250000000     0.303350000000     0          
O        O      0.750000000000     0.138000000000     0.138000000000     0          
O        O      0.667400000000     0.167400000000     0.100950000000     0          
O        O      0.702800000000     0.080900000000     0.080900000000     0          
O        O      0.750000000000     0.067200000000     0.000000000000     0          
T        Si     0.696650000000     0.121750000000     0.121750000000     0          
T        Si     0.750000000000     0.056950000000     0.056950000000     0          
O        O      0.862000000000     0.250000000000     0.138000000000     0          
O        O      0.832600000000     0.167400000000     0.100950000000     0          
O        O      0.919100000000     0.202800000000     0.080900000000     0          
O        O      0.932800000000     0.250000000000     0.000000000000     0          
T        Si     0.878250000000     0.196650000000     0.121750000000     0          
T        Si     0.943050000000     0.250000000000     0.056950000000     0          
O        O      0.750000000000     0.362000000000     0.138000000000     0          
O        O      0.832600000000     0.332600000000     0.100950000000     0          
O        O      0.797200000000     0.419100000000     0.080900000000     0          
O        O      0.750000000000     0.432800000000     0.000000000000     0          
T        Si     0.803350000000     0.378250000000     0.121750000000     0          
T        Si     0.750000000000     0.443050000000     0.056950000000     0          
O        O      0.638000000000     0.250000000000     0.138000000000     0          
O        O      0.667400000000     0.332600000000     0.100950000000     0          
O        O      0.580900000000     0.297200000000     0.080900000000     0          
O        O      0.567200000000     0.250000000000     0.000000000000     0          
T        Si     0.621750000000     0.303350000000     0.121750000000     0          
T        Si     0.556950000000     0.250000000000     0.056950000000     0          
O        O      0.750000000000     0.362000000000     0.362000000000     0          
O        O      0.667400000000     0.332600000000     0.399050000000     0          
O        O      0.702800000000     0.419100000000     0.419100000000     0          
T        Si     0.696650000000     0.378250000000     0.378250000000     0          
T        Si     0.750000000000     0.443050000000     0.443050000000     0          
O        O      0.638000000000     0.250000000000     0.362000000000     0          
O        O      0.667400000000     0.167400000000     0.399050000000     0          
O        O      0.580900000000     0.202800000000     0.419100000000     0          
T        Si     0.621750000000     0.196650000000     0.378250000000     0          
T        Si     0.556950000000     0.250000000000     0.443050000000     0          
O        O      0.750000000000     0.138000000000     0.362000000000     0          
O        O      0.832600000000     0.167400000000     0.399050000000     0          
O        O      0.797200000000     0.080900000000     0.419100000000     0          
T        Si     0.803350000000     0.121750000000     0.378250000000     0          
T        Si     0.750000000000     0.056950000000     0.443050000000     0          
O        O      0.862000000000     0.250000000000     0.362000000000     0          
O        O      0.832600000000     0.332600000000     0.399050000000     0          
O        O      0.919100000000     0.297200000000     0.419100000000     0          
T        Si     0.878250000000     0.303350000000     0.378250000000     0          
T        Si     0.943050000000     0.250000000000     0.443050000000     0          
O        O      0.600950000000     0.167400000000     0.167400000000     0          
O        O      0.580900000000     0.202800000000     0.080900000000     0          
O        O      0.500000000000     0.250000000000     0.067200000000     0          
T        Si     0.621750000000     0.196650000000     0.121750000000     0          
O        O      0.600950000000     0.332600000000     0.332600000000     0          
O        O      0.580900000000     0.297200000000     0.419100000000     0          
O        O      0.500000000000     0.250000000000     0.432800000000     0          
T        Si     0.621750000000     0.303350000000     0.378250000000     0          
O        O      0.667400000000     0.100950000000     0.332600000000     0          
O        O      0.702800000000     0.080900000000     0.419100000000     0          
O        O      0.750000000000     0.000000000000     0.432800000000     0          
T        Si     0.696650000000     0.121750000000     0.378250000000     0          
O        O      0.899050000000     0.167400000000     0.332600000000     0          
O        O      0.919100000000     0.202800000000     0.419100000000     0          
T        Si     0.878250000000     0.196650000000     0.378250000000     0          
O        O      0.832600000000     0.399050000000     0.332600000000     0          
O        O      0.797200000000     0.419100000000     0.419100000000     0          
T        Si     0.803350000000     0.378250000000     0.378250000000     0          
O        O      0.899050000000     0.332600000000     0.167400000000     0          
O        O      0.919100000000     0.297200000000     0.080900000000     0          
T        Si     0.878250000000     0.303350000000     0.121750000000     0          
O        O      0.667400000000     0.399050000000     0.167400000000     0          
O        O      0.702800000000     0.419100000000     0.080900000000     0          
O        O      0.750000000000     0.000000000000     0.067200000000     0          
T        Si     0.696650000000     0.378250000000     0.121750000000     0          
O        O      0.832600000000     0.100950000000     0.167400000000     0          
O        O      0.797200000000     0.080900000000     0.080900000000     0          
T        Si     0.803350000000     0.121750000000     0.121750000000     0          
O        O      0.638000000000     0.138000000000     0.750000000000     0          
O        O      0.667400000000     0.100950000000     0.667400000000     0          
O        O      0.580900000000     0.080900000000     0.702800000000     0          
O        O      0.567200000000     0.000000000000     0.750000000000     0          
T        Si     0.621750000000     0.121750000000     0.696650000000     0          
T        Si     0.556950000000     0.056950000000     0.750000000000     0          
O        O      0.862000000000     0.138000000000     0.750000000000     0          
O        O      0.899050000000     0.167400000000     0.667400000000     0          
O        O      0.919100000000     0.080900000000     0.702800000000     0          
O        O      0.500000000000     0.067200000000     0.750000000000     0          
T        Si     0.878250000000     0.121750000000     0.696650000000     0          
T        Si     0.943050000000     0.056950000000     0.750000000000     0          
O        O      0.862000000000     0.362000000000     0.750000000000     0          
O        O      0.832600000000     0.399050000000     0.667400000000     0          
O        O      0.919100000000     0.419100000000     0.702800000000     0          
O        O      0.932800000000     0.000000000000     0.750000000000     0          
T        Si     0.878250000000     0.378250000000     0.696650000000     0          
T        Si     0.943050000000     0.443050000000     0.750000000000     0          
O        O      0.638000000000     0.362000000000     0.750000000000     0          
O        O      0.600950000000     0.332600000000     0.667400000000     0          
O        O      0.580900000000     0.419100000000     0.702800000000     0          
O        O      0.500000000000     0.432800000000     0.750000000000     0          
T        Si     0.621750000000     0.378250000000     0.696650000000     0          
T        Si     0.556950000000     0.443050000000     0.750000000000     0          
O        O      0.667400000000     0.399050000000     0.832600000000     0          
O        O      0.580900000000     0.419100000000     0.797200000000     0          
T        Si     0.621750000000     0.378250000000     0.803350000000     0          
O        O      0.600950000000     0.167400000000     0.832600000000     0          
O        O      0.580900000000     0.080900000000     0.797200000000     0          
T        Si     0.621750000000     0.121750000000     0.803350000000     0          
O        O      0.832600000000     0.100950000000     0.832600000000     0          
O        O      0.919100000000     0.080900000000     0.797200000000     0          
T        Si     0.878250000000     0.121750000000     0.803350000000     0          
O        O      0.899050000000     0.332600000000     0.832600000000     0          
O        O      0.919100000000     0.419100000000     0.797200000000     0          
T        Si     0.878250000000     0.378250000000     0.803350000000     0          
O        O      0.750000000000     0.138000000000     0.638000000000     0          
O        O      0.667400000000     0.167400000000     0.600950000000     0          
O        O      0.702800000000     0.080900000000     0.580900000000     0          
O        O      0.750000000000     0.067200000000     0.500000000000     0          
T        Si     0.696650000000     0.121750000000     0.621750000000     0          
T        Si     0.750000000000     0.056950000000     0.556950000000     0          
O        O      0.862000000000     0.250000000000     0.638000000000     0          
O        O      0.832600000000     0.167400000000     0.600950000000     0          
O        O      0.919100000000     0.202800000000     0.580900000000     0          
O        O      0.932800000000     0.250000000000     0.500000000000     0          
T        Si     0.878250000000     0.196650000000     0.621750000000     0          
T        Si     0.943050000000     0.250000000000     0.556950000000     0          
O        O      0.750000000000     0.362000000000     0.638000000000     0          
O        O      0.832600000000     0.332600000000     0.600950000000     0          
O        O      0.797200000000     0.419100000000     0.580900000000     0          
O        O      0.750000000000     0.432800000000     0.500000000000     0          
T        Si     0.803350000000     0.378250000000     0.621750000000     0          
T        Si     0.750000000000     0.443050000000     0.556950000000     0          
O        O      0.638000000000     0.250000000000     0.638000000000     0          
O        O      0.667400000000     0.332600000000     0.600950000000     0          
O        O      0.580900000000     0.297200000000     0.580900000000     0          
O        O      0.567200000000     0.250000000000     0.500000000000     0          
T        Si     0.621750000000     0.303350000000     0.621750000000     0          
T        Si     0.556950000000     0.250000000000     0.556950000000     0          
O        O      0.750000000000     0.362000000000     0.862000000000     0          
O        O      0.667400000000     0.332600000000     0.899050000000     0          
O        O      0.702800000000     0.419100000000     0.919100000000     0          
T        Si     0.696650000000     0.378250000000     0.878250000000     0          
T        Si     0.750000000000     0.443050000000     0.943050000000     0          
O        O      0.638000000000     0.250000000000     0.862000000000     0          
O        O      0.667400000000     0.167400000000     0.899050000000     0          
O        O      0.580900000000     0.202800000000     0.919100000000     0          
T        Si     0.621750000000     0.196650000000     0.878250000000     0          
T        Si     0.556950000000     0.250000000000     0.943050000000     0          
O        O      0.750000000000     0.138000000000     0.862000000000     0          
O        O      0.832600000000     0.167400000000     0.899050000000     0          
O        O      0.797200000000     0.080900000000     0.919100000000     0          
T        Si     0.803350000000     0.121750000000     0.878250000000     0          
T        Si     0.750000000000     0.056950000000     0.943050000000     0          
O        O      0.862000000000     0.250000000000     0.862000000000     0          
O        O      0.832600000000     0.332600000000     0.899050000000     0          
O        O      0.919100000000     0.297200000000     0.919100000000     0          
T        Si     0.878250000000     0.303350000000     0.878250000000     0          
T        Si     0.943050000000     0.250000000000     0.943050000000     0          
O        O      0.600950000000     0.167400000000     0.667400000000     0          
O        O      0.580900000000     0.202800000000     0.580900000000     0          
O        O      0.500000000000     0.250000000000     0.567200000000     0          
T        Si     0.621750000000     0.196650000000     0.621750000000     0          
O        O      0.600950000000     0.332600000000     0.832600000000     0          
O        O      0.580900000000     0.297200000000     0.919100000000     0          
O        O      0.500000000000     0.250000000000     0.932800000000     0          
T        Si     0.621750000000     0.303350000000     0.878250000000     0          
O        O      0.667400000000     0.100950000000     0.832600000000     0          
O        O      0.702800000000     0.080900000000     0.919100000000     0          
O        O      0.750000000000     0.000000000000     0.932800000000     0          
T        Si     0.696650000000     0.121750000000     0.878250000000     0          
O        O      0.899050000000     0.167400000000     0.832600000000     0          
O        O      0.919100000000     0.202800000000     0.919100000000     0          
T        Si     0.878250000000     0.196650000000     0.878250000000     0          
O        O      0.832600000000     0.399050000000     0.832600000000     0          
O        O      0.797200000000     0.419100000000     0.919100000000     0          
T        Si     0.803350000000     0.378250000000     0.878250000000     0          
O        O      0.899050000000     0.332600000000     0.667400000000     0          
O        O      0.919100000000     0.297200000000     0.580900000000     0          
T        Si     0.878250000000     0.303350000000     0.621750000000     0          
O        O      0.667400000000     0.399050000000     0.667400000000     0          
O        O      0.702800000000     0.419100000000     0.580900000000     0          
O        O      0.750000000000     0.000000000000     0.567200000000     0          
T        Si     0.696650000000     0.378250000000     0.621750000000     0          
O        O      0.832600000000     0.100950000000     0.667400000000     0          
O        O      0.797200000000     0.080900000000     0.580900000000     0          
T        Si     0.803350000000     0.121750000000     0.621750000000     0          
O        O      0.638000000000     0.638000000000     0.250000000000     0          
O        O      0.667400000000     0.600950000000     0.167400000000     0          
O        O      0.580900000000     0.580900000000     0.202800000000     0          
O        O      0.567200000000     0.500000000000     0.250000000000     0          
T        Si     0.621750000000     0.621750000000     0.196650000000     0          
T        Si     0.556950000000     0.556950000000     0.250000000000     0          
O        O      0.862000000000     0.638000000000     0.250000000000     0          
O        O      0.899050000000     0.667400000000     0.167400000000     0          
O        O      0.919100000000     0.580900000000     0.202800000000     0          
O        O      0.500000000000     0.567200000000     0.250000000000     0          
T        Si     0.878250000000     0.621750000000     0.196650000000     0          
T        Si     0.943050000000     0.556950000000     0.250000000000     0          
O        O      0.862000000000     0.862000000000     0.250000000000     0          
O        O      0.832600000000     0.899050000000     0.167400000000     0          
O        O      0.919100000000     0.919100000000     0.202800000000     0          
O        O      0.932800000000     0.500000000000     0.250000000000     0          
T        Si     0.878250000000     0.878250000000     0.196650000000     0          
T        Si     0.943050000000     0.943050000000     0.250000000000     0          
O        O      0.638000000000     0.862000000000     0.250000000000     0          
O        O      0.600950000000     0.832600000000     0.167400000000     0          
O        O      0.580900000000     0.919100000000     0.202800000000     0          
O        O      0.500000000000     0.932800000000     0.250000000000     0          
T        Si     0.621750000000     0.878250000000     0.196650000000     0          
T        Si     0.556950000000     0.943050000000     0.250000000000     0          
O        O      0.667400000000     0.899050000000     0.332600000000     0          
O        O      0.580900000000     0.919100000000     0.297200000000     0          
T        Si     0.621750000000     0.878250000000     0.303350000000     0          
O        O      0.600950000000     0.667400000000     0.332600000000     0          
O        O      0.580900000000     0.580900000000     0.297200000000     0          
T        Si     0.621750000000     0.621750000000     0.303350000000     0          
O        O      0.832600000000     0.600950000000     0.332600000000     0          
O        O      0.919100000000     0.580900000000     0.297200000000     0          
T        Si     0.878250000000     0.621750000000     0.303350000000     0          
O        O      0.899050000000     0.832600000000     0.332600000000     0          
O        O      0.919100000000     0.919100000000     0.297200000000     0          
T        Si     0.878250000000     0.878250000000     0.303350000000     0          
O        O      0.750000000000     0.638000000000     0.138000000000     0          
O        O      0.667400000000     0.667400000000     0.100950000000     0          
O        O      0.702800000000     0.580900000000     0.080900000000     0          
O        O      0.750000000000     0.567200000000     0.000000000000     0          
T        Si     0.696650000000     0.621750000000     0.121750000000     0          
T        Si     0.750000000000     0.556950000000     0.056950000000     0          
O        O      0.862000000000     0.750000000000     0.138000000000     0          
O        O      0.832600000000     0.667400000000     0.100950000000     0          
O        O      0.919100000000     0.702800000000     0.080900000000     0          
O        O      0.932800000000     0.750000000000     0.000000000000     0          
T        Si     0.878250000000     0.696650000000     0.121750000000     0          
T        Si     0.943050000000     0.750000000000     0.056950000000     0          
O        O      0.750000000000     0.862000000000     0.138000000000     0          
O        O      0.832600000000     0.832600000000     0.100950000000     0          
O        O      0.797200000000     0.919100000000     0.080900000000     0          
O        O      0.750000000000     0.932800000000     0.000000000000     0          
T        Si     0.803350000000     0.878250000000     0.121750000000     0          
T        Si     0.750000000000     0.943050000000     0.056950000000     0          
O        O      0.638000000000     0.750000000000     0.138000000000     0          
O        O      0.667400000000     0.832600000000     0.100950000000     0          
O        O      0.580900000000     0.797200000000     0.080900000000     0          
O        O      0.567200000000     0.750000000000     0.000000000000     0          
T        Si     0.621750000000     0.803350000000     0.121750000000     0          
T        Si     0.556950000000     0.750000000000     0.056950000000     0          
O        O      0.750000000000     0.862000000000     0.362000000000     0          
O        O      0.667400000000     0.832600000000     0.399050000000     0          
O        O      0.702800000000     0.919100000000     0.419100000000     0          
T        Si     0.696650000000     0.878250000000     0.378250000000     0          
T        Si     0.750000000000     0.943050000000     0.443050000000     0          
O        O      0.638000000000     0.750000000000     0.362000000000     0          
O        O      0.667400000000     0.667400000000     0.399050000000     0          
O        O      0.580900000000     0.702800000000     0.419100000000     0          
T        Si     0.621750000000     0.696650000000     0.378250000000     0          
T        Si     0.556950000000     0.750000000000     0.443050000000     0          
O        O      0.750000000000     0.638000000000     0.362000000000     0          
O        O      0.832600000000     0.667400000000     0.399050000000     0          
O        O      0.797200000000     0.580900000000     0.419100000000     0          
T        Si     0.803350000000     0.621750000000     0.378250000000     0          
T        Si     0.750000000000     0.556950000000     0.443050000000     0          
O        O      0.862000000000     0.750000000000     0.362000000000     0          
O        O      0.832600000000     0.832600000000     0.399050000000     0          
O        O      0.919100000000     0.797200000000     0.419100000000     0          
T        Si     0.878250000000     0.803350000000     0.378250000000     0          
T        Si     0.943050000000     0.750000000000     0.443050000000     0          
O        O      0.600950000000     0.667400000000     0.167400000000     0          
O        O      0.580900000000     0.702800000000     0.080900000000     0          
O        O      0.500000000000     0.750000000000     0.067200000000     0          
T        Si     0.621750000000     0.696650000000     0.121750000000     0          
O        O      0.600950000000     0.832600000000     0.332600000000     0          
O        O      0.580900000000     0.797200000000     0.419100000000     0          
O        O      0.500000000000     0.750000000000     0.432800000000     0          
T        Si     0.621750000000     0.803350000000     0.378250000000     0          
O        O      0.667400000000     0.600950000000     0.332600000000     0          
O        O      0.702800000000     0.580900000000     0.419100000000     0          
O        O      0.750000000000     0.500000000000     0.432800000000     0          
T        Si     0.696650000000     0.621750000000     0.378250000000     0          
O        O      0.899050000000     0.667400000000     0.332600000000     0          
O        O      0.919100000000     0.702800000000     0.419100000000     0          
T        Si     0.878250000000     0.696650000000     0.378250000000     0          
O        O      0.832600000000     0.899050000000     0.332600000000     0          
O        O      0.797200000000     0.919100000000     0.419100000000     0          
T        Si     0.803350000000     0.878250000000     0.378250000000     0          
O        O      0.899050000000     0.832600000000     0.167400000000     0          
O        O      0.919100000000     0.797200000000     0.080900000000     0          
T        Si     0.878250000000     0.803350000000     0.121750000000     0          
O        O      0.667400000000     0.899050000000     0.167400000000     0          
O        O      0.702800000000     0.919100000000     0.080900000000     0          
O        O      0.750000000000     0.500000000000     0.067200000000     0          
T        Si     0.696650000000     0.878250000000     0.121750000000     0          
O        O      0.832600000000     0.600950000000     0.167400000000     0          
O        O      0.797200000000     0.580900000000     0.080900000000     0          
T        Si     0.803350000000     0.621750000000     0.121750000000     0          
O        O      0.638000000000     0.638000000000     0.750000000000     0          
O        O      0.667400000000     0.600950000000     0.667400000000     0          
O        O      0.580900000000     0.580900000000     0.702800000000     0          
O        O      0.567200000000     0.500000000000     0.750000000000     0          
T        Si     0.621750000000     0.621750000000     0.696650000000     0          
T        Si     0.556950000000     0.556950000000     0.750000000000     0          
O        O      0.862000000000     0.638000000000     0.750000000000     0          
O        O      0.899050000000     0.667400000000     0.667400000000     0          
O        O      0.919100000000     0.580900000000     0.702800000000     0          
O        O      0.500000000000     0.567200000000     0.750000000000     0          
T        Si     0.878250000000     0.621750000000     0.696650000000     0          
T        Si     0.943050000000     0.556950000000     0.750000000000     0          
O        O      0.862000000000     0.862000000000     0.750000000000     0          
O        O      0.832600000000     0.899050000000     0.667400000000     0          
O        O      0.919100000000     0.919100000000     0.702800000000     0          
O        O      0.932800000000     0.500000000000     0.750000000000     0          
T        Si     0.878250000000     0.878250000000     0.696650000000     0          
T        Si     0.943050000000     0.943050000000     0.750000000000     0          
O        O      0.638000000000     0.862000000000     0.750000000000     0          
O        O      0.600950000000     0.832600000000     0.667400000000     0          
O        O      0.580900000000     0.919100000000     0.702800000000     0          
O        O      0.500000000000     0.932800000000     0.750000000000     0          
T        Si     0.621750000000     0.878250000000     0.696650000000     0          
T        Si     0.556950000000     0.943050000000     0.750000000000     0          
O        O      0.667400000000     0.899050000000     0.832600000000     0          
O        O      0.580900000000     0.919100000000     0.797200000000     0          
T        Si     0.621750000000     0.878250000000     0.803350000000     0          
O        O      0.600950000000     0.667400000000     0.832600000000     0          
O        O      0.580900000000     0.580900000000     0.797200000000     0          
T        Si     0.621750000000     0.621750000000     0.803350000000     0          
O        O      0.832600000000     0.600950000000     0.832600000000     0          
O        O      0.919100000000     0.580900000000     0.797200000000     0          
T        Si     0.878250000000     0.621750000000     0.803350000000     0          
O        O      0.899050000000     0.832600000000     0.832600000000     0          
O        O      0.919100000000     0.919100000000     0.797200000000     0          
T        Si     0.878250000000     0.878250000000     0.803350000000     0          
O        O      0.750000000000     0.638000000000     0.638000000000     0          
O        O      0.667400000000     0.667400000000     0.600950000000     0          
O        O      0.702800000000     0.580900000000     0.580900000000     0          
O        O      0.750000000000     0.567200000000     0.500000000000     0          
T        Si     0.696650000000     0.621750000000     0.621750000000     0          
T        Si     0.750000000000     0.556950000000     0.556950000000     0          
O        O      0.862000000000     0.750000000000     0.638000000000     0          
O        O      0.832600000000     0.667400000000     0.600950000000     0          
O        O      0.919100000000     0.702800000000     0.580900000000     0          
O        O      0.932800000000     0.750000000000     0.500000000000     0          
T        Si     0.878250000000     0.696650000000     0.621750000000     0          
T        Si     0.943050000000     0.750000000000     0.556950000000     0          
O        O      0.750000000000     0.862000000000     0.638000000000     0          
O        O      0.832600000000     0.832600000000     0.600950000000     0          
O        O      0.797200000000     0.919100000000     0.580900000000     0          
O        O      0.750000000000     0.932800000000     0.500000000000     0          
T        Si     0.803350000000     0.878250000000     0.621750000000     0          
T        Si     0.750000000000     0.943050000000     0.556950000000     0          
O        O      0.638000000000     0.750000000000     0.638000000000     0          
O        O      0.667400000000     0.832600000000     0.600950000000     0          
O        O      0.580900000000     0.797200000000     0.580900000000     0          
O        O      0.567200000000     0.750000000000     0.500000000000     0          
T        Si     0.621750000000     0.803350000000     0.621750000000     0          
T        Si     0.556950000000     0.750000000000     0.556950000000     0          
O        O      0.750000000000     0.862000000000     0.862000000000     0          
O        O      0.667400000000     0.832600000000     0.899050000000     0          
O        O      0.702800000000     0.919100000000     0.919100000000     0          
T        Si     0.696650000000     0.878250000000     0.878250000000     0          
T        Si     0.750000000000     0.943050000000     0.943050000000     0          
O        O      0.638000000000     0.750000000000     0.862000000000     0          
O        O      0.667400000000     0.667400000000     0.899050000000     0          
O        O      0.580900000000     0.702800000000     0.919100000000     0          
T        Si     0.621750000000     0.696650000000     0.878250000000     0          
T        Si     0.556950000000     0.750000000000     0.943050000000     0          
O        O      0.750000000000     0.638000000000     0.862000000000     0          
O        O      0.832600000000     0.667400000000     0.899050000000     0          
O        O      0.797200000000     0.580900000000     0.919100000000     0          
T        Si     0.803350000000     0.621750000000     0.878250000000     0          
T        Si     0.750000000000     0.556950000000     0.943050000000     0          
O        O      0.862000000000     0.750000000000     0.862000000000     0          
O        O      0.832600000000     0.832600000000     0.899050000000     0          
O        O      0.919100000000     0.797200000000     0.919100000000     0          
T        Si     0.878250000000     0.803350000000     0.878250000000     0          
T        Si     0.943050000000     0.750000000000     0.943050000000     0          
O        O      0.600950000000     0.667400000000     0.667400000000     0          
O        O      0.580900000000     0.702800000000     0.580900000000     0          
O        O      0.500000000000     0.750000000000     0.567200000000     0          
T        Si     0.621750000000     0.696650000000     0.621750000000     0          
O        O      0.600950000000     0.832600000000     0.832600000000     0          
O        O      0.580900000000     0.797200000000     0.919100000000     0          
O        O      0.500000000000     0.750000000000     0.932800000000     0          
T        Si     0.621750000000     0.803350000000     0.878250000000     0          
O        O      0.667400000000     0.600950000000     0.832600000000     0          
O        O      0.702800000000     0.580900000000     0.919100000000     0          
O        O      0.750000000000     0.500000000000     0.932800000000     0          
T        Si     0.696650000000     0.621750000000     0.878250000000     0          
O        O      0.899050000000     0.667400000000     0.832600000000     0          
O        O      0.919100000000     0.702800000000     0.919100000000     0          
T        Si     0.878250000000     0.696650000000     0.878250000000     0          
O        O      0.832600000000     0.899050000000     0.832600000000     0          
O        O      0.797200000000     0.919100000000     0.919100000000     0          
T        Si     0.803350000000     0.878250000000     0.878250000000     0          
O        O      0.899050000000     0.832600000000     0.667400000000     0          
O        O      0.919100000000     0.797200000000     0.580900000000     0          
T        Si     0.878250000000     0.803350000000     0.621750000000     0          
O        O      0.667400000000     0.899050000000     0.667400000000     0          
O        O      0.702800000000     0.919100000000     0.580900000000     0          
O        O      0.750000000000     0.500000000000     0.567200000000     0          
T        Si     0.696650000000     0.878250000000     0.621750000000     0          
O        O      0.832600000000     0.600950000000     0.667400000000     0          
O        O      0.797200000000     0.580900000000     0.580900000000     0          
T        Si     0.803350000000     0.621750000000     0.621750000000     0          


