data_zeolite

_audit_creation_method RASPA-1.0
_audit_creation_date 2021-6-6
_audit_author_name ''

_cell_length_a    45.724
_cell_length_b    31.312
_cell_length_c    27.87
_cell_angle_alpha 90
_cell_angle_beta  90
_cell_angle_gamma 90
_cell_volume      39901.8

_symmetry_cell_setting          orthorhombic
_symmetry_space_group_name_Hall 'P 1'
_symmetry_space_group_name_H-M  'P 1'
_symmetry_Int_Tables_number     1

_symmetry_equiv_pos_as_xyz 'x,y,z'

loop_
_atom_site_label
_atom_site_type_symbol
_atom_site_fract_x
_atom_site_fract_y
_atom_site_fract_z
_atom_site_charge
O        O      0.174600000000     0.042100000000     0.124750000000     0          
O        O      0.221250000000     0.071000000000     0.169250000000     0          
O        O      0.186850000000     0.125000000000     0.125000000000     0          
O        O      0.168800000000     0.088750000000     0.203000000000     0          
O        O      0.125000000000     0.125000000000     0.000000000000     0          
O        O      0.131400000000     0.208100000000     0.000000000000     0          
O        O      0.250000000000     0.061950000000     0.250000000000     0          
O        O      0.250000000000     0.000000000000     0.313950000000     0          
O        O      0.158800000000     0.250000000000     0.202400000000     0          
O        O      0.125000000000     0.250000000000     0.125000000000     0          
T        Si     0.187850000000     0.081250000000     0.155150000000     0          
T        Si     0.148450000000     0.163200000000     0.000000000000     0          
T        Si     0.250000000000     0.050900000000     0.306350000000     0          
T        Si     0.158100000000     0.250000000000     0.144600000000     0          
T        Si     0.138900000000     0.250000000000     0.250000000000     0          
O        O      0.325400000000     0.457900000000     0.124750000000     0          
O        O      0.278750000000     0.429000000000     0.169250000000     0          
O        O      0.313150000000     0.375000000000     0.125000000000     0          
O        O      0.331200000000     0.411250000000     0.203000000000     0          
O        O      0.375000000000     0.375000000000     0.000000000000     0          
O        O      0.368600000000     0.291900000000     0.000000000000     0          
O        O      0.250000000000     0.438050000000     0.250000000000     0          
O        O      0.341200000000     0.250000000000     0.202400000000     0          
O        O      0.375000000000     0.250000000000     0.125000000000     0          
T        Si     0.312150000000     0.418750000000     0.155150000000     0          
T        Si     0.351550000000     0.336800000000     0.000000000000     0          
T        Si     0.250000000000     0.449100000000     0.306350000000     0          
T        Si     0.341900000000     0.250000000000     0.144600000000     0          
T        Si     0.361100000000     0.250000000000     0.250000000000     0          
O        O      0.174600000000     0.457900000000     0.375250000000     0          
O        O      0.221250000000     0.429000000000     0.330750000000     0          
O        O      0.186850000000     0.375000000000     0.375000000000     0          
O        O      0.168800000000     0.411250000000     0.297000000000     0          
O        O      0.125000000000     0.375000000000     0.000000000000     0          
O        O      0.131400000000     0.291900000000     0.000000000000     0          
O        O      0.250000000000     0.000000000000     0.186050000000     0          
O        O      0.158800000000     0.250000000000     0.297600000000     0          
O        O      0.125000000000     0.250000000000     0.375000000000     0          
T        Si     0.187850000000     0.418750000000     0.344850000000     0          
T        Si     0.148450000000     0.336800000000     0.000000000000     0          
T        Si     0.250000000000     0.449100000000     0.193650000000     0          
T        Si     0.158100000000     0.250000000000     0.355400000000     0          
O        O      0.325400000000     0.042100000000     0.375250000000     0          
O        O      0.278750000000     0.071000000000     0.330750000000     0          
O        O      0.313150000000     0.125000000000     0.375000000000     0          
O        O      0.331200000000     0.088750000000     0.297000000000     0          
O        O      0.375000000000     0.125000000000     0.000000000000     0          
O        O      0.368600000000     0.208100000000     0.000000000000     0          
O        O      0.341200000000     0.250000000000     0.297600000000     0          
O        O      0.375000000000     0.250000000000     0.375000000000     0          
T        Si     0.312150000000     0.081250000000     0.344850000000     0          
T        Si     0.351550000000     0.163200000000     0.000000000000     0          
T        Si     0.250000000000     0.050900000000     0.193650000000     0          
T        Si     0.341900000000     0.250000000000     0.355400000000     0          
O        O      0.325400000000     0.457900000000     0.375250000000     0          
O        O      0.278750000000     0.429000000000     0.330750000000     0          
O        O      0.313150000000     0.375000000000     0.375000000000     0          
O        O      0.331200000000     0.411250000000     0.297000000000     0          
T        Si     0.312150000000     0.418750000000     0.344850000000     0          
O        O      0.174600000000     0.042100000000     0.375250000000     0          
O        O      0.221250000000     0.071000000000     0.330750000000     0          
O        O      0.186850000000     0.125000000000     0.375000000000     0          
O        O      0.168800000000     0.088750000000     0.297000000000     0          
T        Si     0.187850000000     0.081250000000     0.344850000000     0          
O        O      0.325400000000     0.042100000000     0.124750000000     0          
O        O      0.278750000000     0.071000000000     0.169250000000     0          
O        O      0.313150000000     0.125000000000     0.125000000000     0          
O        O      0.331200000000     0.088750000000     0.203000000000     0          
T        Si     0.312150000000     0.081250000000     0.155150000000     0          
O        O      0.174600000000     0.457900000000     0.124750000000     0          
O        O      0.221250000000     0.429000000000     0.169250000000     0          
O        O      0.186850000000     0.375000000000     0.125000000000     0          
O        O      0.168800000000     0.411250000000     0.203000000000     0          
T        Si     0.187850000000     0.418750000000     0.155150000000     0          
O        O      0.174600000000     0.292100000000     0.374750000000     0          
O        O      0.221250000000     0.321000000000     0.419250000000     0          
O        O      0.168800000000     0.338750000000     0.453000000000     0          
O        O      0.125000000000     0.375000000000     0.250000000000     0          
O        O      0.131400000000     0.458100000000     0.250000000000     0          
O        O      0.250000000000     0.311950000000     0.000000000000     0          
O        O      0.250000000000     0.250000000000     0.063950000000     0          
O        O      0.158800000000     0.000000000000     0.452400000000     0          
O        O      0.125000000000     0.000000000000     0.375000000000     0          
T        Si     0.187850000000     0.331250000000     0.405150000000     0          
T        Si     0.148450000000     0.413200000000     0.250000000000     0          
T        Si     0.250000000000     0.300900000000     0.056350000000     0          
T        Si     0.158100000000     0.000000000000     0.394600000000     0          
T        Si     0.138900000000     0.000000000000     0.000000000000     0          
O        O      0.325400000000     0.207900000000     0.374750000000     0          
O        O      0.278750000000     0.179000000000     0.419250000000     0          
O        O      0.331200000000     0.161250000000     0.453000000000     0          
O        O      0.375000000000     0.125000000000     0.250000000000     0          
O        O      0.368600000000     0.041900000000     0.250000000000     0          
O        O      0.250000000000     0.188050000000     0.000000000000     0          
O        O      0.341200000000     0.000000000000     0.452400000000     0          
O        O      0.375000000000     0.000000000000     0.375000000000     0          
T        Si     0.312150000000     0.168750000000     0.405150000000     0          
T        Si     0.351550000000     0.086800000000     0.250000000000     0          
T        Si     0.250000000000     0.199100000000     0.056350000000     0          
T        Si     0.341900000000     0.000000000000     0.394600000000     0          
T        Si     0.361100000000     0.000000000000     0.000000000000     0          
O        O      0.174600000000     0.207900000000     0.125250000000     0          
O        O      0.221250000000     0.179000000000     0.080750000000     0          
O        O      0.168800000000     0.161250000000     0.047000000000     0          
O        O      0.125000000000     0.125000000000     0.250000000000     0          
O        O      0.131400000000     0.041900000000     0.250000000000     0          
O        O      0.250000000000     0.250000000000     0.436050000000     0          
O        O      0.158800000000     0.000000000000     0.047600000000     0          
O        O      0.125000000000     0.000000000000     0.125000000000     0          
T        Si     0.187850000000     0.168750000000     0.094850000000     0          
T        Si     0.148450000000     0.086800000000     0.250000000000     0          
T        Si     0.250000000000     0.199100000000     0.443650000000     0          
T        Si     0.158100000000     0.000000000000     0.105400000000     0          
O        O      0.325400000000     0.292100000000     0.125250000000     0          
O        O      0.278750000000     0.321000000000     0.080750000000     0          
O        O      0.331200000000     0.338750000000     0.047000000000     0          
O        O      0.375000000000     0.375000000000     0.250000000000     0          
O        O      0.368600000000     0.458100000000     0.250000000000     0          
O        O      0.341200000000     0.000000000000     0.047600000000     0          
O        O      0.375000000000     0.000000000000     0.125000000000     0          
T        Si     0.312150000000     0.331250000000     0.094850000000     0          
T        Si     0.351550000000     0.413200000000     0.250000000000     0          
T        Si     0.250000000000     0.300900000000     0.443650000000     0          
T        Si     0.341900000000     0.000000000000     0.105400000000     0          
O        O      0.325400000000     0.207900000000     0.125250000000     0          
O        O      0.278750000000     0.179000000000     0.080750000000     0          
O        O      0.331200000000     0.161250000000     0.047000000000     0          
T        Si     0.312150000000     0.168750000000     0.094850000000     0          
O        O      0.174600000000     0.292100000000     0.125250000000     0          
O        O      0.221250000000     0.321000000000     0.080750000000     0          
O        O      0.168800000000     0.338750000000     0.047000000000     0          
T        Si     0.187850000000     0.331250000000     0.094850000000     0          
O        O      0.325400000000     0.292100000000     0.374750000000     0          
O        O      0.278750000000     0.321000000000     0.419250000000     0          
O        O      0.331200000000     0.338750000000     0.453000000000     0          
T        Si     0.312150000000     0.331250000000     0.405150000000     0          
O        O      0.174600000000     0.207900000000     0.374750000000     0          
O        O      0.221250000000     0.179000000000     0.419250000000     0          
O        O      0.168800000000     0.161250000000     0.453000000000     0          
T        Si     0.187850000000     0.168750000000     0.405150000000     0          
O        O      0.424600000000     0.042100000000     0.374750000000     0          
O        O      0.471250000000     0.071000000000     0.419250000000     0          
O        O      0.436850000000     0.125000000000     0.375000000000     0          
O        O      0.418800000000     0.088750000000     0.453000000000     0          
O        O      0.381400000000     0.208100000000     0.250000000000     0          
O        O      0.000000000000     0.061950000000     0.000000000000     0          
O        O      0.000000000000     0.000000000000     0.063950000000     0          
O        O      0.408800000000     0.250000000000     0.452400000000     0          
T        Si     0.437850000000     0.081250000000     0.405150000000     0          
T        Si     0.398450000000     0.163200000000     0.250000000000     0          
T        Si     0.000000000000     0.050900000000     0.056350000000     0          
T        Si     0.408100000000     0.250000000000     0.394600000000     0          
T        Si     0.388900000000     0.250000000000     0.000000000000     0          
O        O      0.075400000000     0.457900000000     0.374750000000     0          
O        O      0.028750000000     0.429000000000     0.419250000000     0          
O        O      0.063150000000     0.375000000000     0.375000000000     0          
O        O      0.081200000000     0.411250000000     0.453000000000     0          
O        O      0.118600000000     0.291900000000     0.250000000000     0          
O        O      0.000000000000     0.438050000000     0.000000000000     0          
O        O      0.091200000000     0.250000000000     0.452400000000     0          
T        Si     0.062150000000     0.418750000000     0.405150000000     0          
T        Si     0.101550000000     0.336800000000     0.250000000000     0          
T        Si     0.000000000000     0.449100000000     0.056350000000     0          
T        Si     0.091900000000     0.250000000000     0.394600000000     0          
T        Si     0.111100000000     0.250000000000     0.000000000000     0          
O        O      0.424600000000     0.457900000000     0.125250000000     0          
O        O      0.471250000000     0.429000000000     0.080750000000     0          
O        O      0.436850000000     0.375000000000     0.125000000000     0          
O        O      0.418800000000     0.411250000000     0.047000000000     0          
O        O      0.381400000000     0.291900000000     0.250000000000     0          
O        O      0.000000000000     0.000000000000     0.436050000000     0          
O        O      0.408800000000     0.250000000000     0.047600000000     0          
T        Si     0.437850000000     0.418750000000     0.094850000000     0          
T        Si     0.398450000000     0.336800000000     0.250000000000     0          
T        Si     0.000000000000     0.449100000000     0.443650000000     0          
T        Si     0.408100000000     0.250000000000     0.105400000000     0          
O        O      0.075400000000     0.042100000000     0.125250000000     0          
O        O      0.028750000000     0.071000000000     0.080750000000     0          
O        O      0.063150000000     0.125000000000     0.125000000000     0          
O        O      0.081200000000     0.088750000000     0.047000000000     0          
O        O      0.118600000000     0.208100000000     0.250000000000     0          
O        O      0.091200000000     0.250000000000     0.047600000000     0          
T        Si     0.062150000000     0.081250000000     0.094850000000     0          
T        Si     0.101550000000     0.163200000000     0.250000000000     0          
T        Si     0.000000000000     0.050900000000     0.443650000000     0          
T        Si     0.091900000000     0.250000000000     0.105400000000     0          
O        O      0.075400000000     0.457900000000     0.125250000000     0          
O        O      0.028750000000     0.429000000000     0.080750000000     0          
O        O      0.063150000000     0.375000000000     0.125000000000     0          
O        O      0.081200000000     0.411250000000     0.047000000000     0          
T        Si     0.062150000000     0.418750000000     0.094850000000     0          
O        O      0.424600000000     0.042100000000     0.125250000000     0          
O        O      0.471250000000     0.071000000000     0.080750000000     0          
O        O      0.436850000000     0.125000000000     0.125000000000     0          
O        O      0.418800000000     0.088750000000     0.047000000000     0          
T        Si     0.437850000000     0.081250000000     0.094850000000     0          
O        O      0.075400000000     0.042100000000     0.374750000000     0          
O        O      0.028750000000     0.071000000000     0.419250000000     0          
O        O      0.063150000000     0.125000000000     0.375000000000     0          
O        O      0.081200000000     0.088750000000     0.453000000000     0          
T        Si     0.062150000000     0.081250000000     0.405150000000     0          
O        O      0.424600000000     0.457900000000     0.374750000000     0          
O        O      0.471250000000     0.429000000000     0.419250000000     0          
O        O      0.436850000000     0.375000000000     0.375000000000     0          
O        O      0.418800000000     0.411250000000     0.453000000000     0          
T        Si     0.437850000000     0.418750000000     0.405150000000     0          
O        O      0.424600000000     0.292100000000     0.124750000000     0          
O        O      0.471250000000     0.321000000000     0.169250000000     0          
O        O      0.418800000000     0.338750000000     0.203000000000     0          
O        O      0.381400000000     0.458100000000     0.000000000000     0          
O        O      0.000000000000     0.311950000000     0.250000000000     0          
O        O      0.000000000000     0.250000000000     0.313950000000     0          
O        O      0.408800000000     0.000000000000     0.202400000000     0          
T        Si     0.437850000000     0.331250000000     0.155150000000     0          
T        Si     0.398450000000     0.413200000000     0.000000000000     0          
T        Si     0.000000000000     0.300900000000     0.306350000000     0          
T        Si     0.408100000000     0.000000000000     0.144600000000     0          
T        Si     0.388900000000     0.000000000000     0.250000000000     0          
O        O      0.075400000000     0.207900000000     0.124750000000     0          
O        O      0.028750000000     0.179000000000     0.169250000000     0          
O        O      0.081200000000     0.161250000000     0.203000000000     0          
O        O      0.118600000000     0.041900000000     0.000000000000     0          
O        O      0.000000000000     0.188050000000     0.250000000000     0          
O        O      0.091200000000     0.000000000000     0.202400000000     0          
T        Si     0.062150000000     0.168750000000     0.155150000000     0          
T        Si     0.101550000000     0.086800000000     0.000000000000     0          
T        Si     0.000000000000     0.199100000000     0.306350000000     0          
T        Si     0.091900000000     0.000000000000     0.144600000000     0          
T        Si     0.111100000000     0.000000000000     0.250000000000     0          
O        O      0.424600000000     0.207900000000     0.375250000000     0          
O        O      0.471250000000     0.179000000000     0.330750000000     0          
O        O      0.418800000000     0.161250000000     0.297000000000     0          
O        O      0.381400000000     0.041900000000     0.000000000000     0          
O        O      0.000000000000     0.250000000000     0.186050000000     0          
O        O      0.408800000000     0.000000000000     0.297600000000     0          
T        Si     0.437850000000     0.168750000000     0.344850000000     0          
T        Si     0.398450000000     0.086800000000     0.000000000000     0          
T        Si     0.000000000000     0.199100000000     0.193650000000     0          
T        Si     0.408100000000     0.000000000000     0.355400000000     0          
O        O      0.075400000000     0.292100000000     0.375250000000     0          
O        O      0.028750000000     0.321000000000     0.330750000000     0          
O        O      0.081200000000     0.338750000000     0.297000000000     0          
O        O      0.118600000000     0.458100000000     0.000000000000     0          
O        O      0.091200000000     0.000000000000     0.297600000000     0          
T        Si     0.062150000000     0.331250000000     0.344850000000     0          
T        Si     0.101550000000     0.413200000000     0.000000000000     0          
T        Si     0.000000000000     0.300900000000     0.193650000000     0          
T        Si     0.091900000000     0.000000000000     0.355400000000     0          
O        O      0.075400000000     0.207900000000     0.375250000000     0          
O        O      0.028750000000     0.179000000000     0.330750000000     0          
O        O      0.081200000000     0.161250000000     0.297000000000     0          
T        Si     0.062150000000     0.168750000000     0.344850000000     0          
O        O      0.424600000000     0.292100000000     0.375250000000     0          
O        O      0.471250000000     0.321000000000     0.330750000000     0          
O        O      0.418800000000     0.338750000000     0.297000000000     0          
T        Si     0.437850000000     0.331250000000     0.344850000000     0          
O        O      0.075400000000     0.292100000000     0.124750000000     0          
O        O      0.028750000000     0.321000000000     0.169250000000     0          
O        O      0.081200000000     0.338750000000     0.203000000000     0          
T        Si     0.062150000000     0.331250000000     0.155150000000     0          
O        O      0.424600000000     0.207900000000     0.124750000000     0          
O        O      0.471250000000     0.179000000000     0.169250000000     0          
O        O      0.418800000000     0.161250000000     0.203000000000     0          
T        Si     0.437850000000     0.168750000000     0.155150000000     0          
O        O      0.174600000000     0.042100000000     0.624750000000     0          
O        O      0.221250000000     0.071000000000     0.669250000000     0          
O        O      0.186850000000     0.125000000000     0.625000000000     0          
O        O      0.168800000000     0.088750000000     0.703000000000     0          
O        O      0.125000000000     0.125000000000     0.500000000000     0          
O        O      0.131400000000     0.208100000000     0.500000000000     0          
O        O      0.250000000000     0.061950000000     0.750000000000     0          
O        O      0.250000000000     0.000000000000     0.813950000000     0          
O        O      0.158800000000     0.250000000000     0.702400000000     0          
O        O      0.125000000000     0.250000000000     0.625000000000     0          
T        Si     0.187850000000     0.081250000000     0.655150000000     0          
T        Si     0.148450000000     0.163200000000     0.500000000000     0          
T        Si     0.250000000000     0.050900000000     0.806350000000     0          
T        Si     0.158100000000     0.250000000000     0.644600000000     0          
T        Si     0.138900000000     0.250000000000     0.750000000000     0          
O        O      0.325400000000     0.457900000000     0.624750000000     0          
O        O      0.278750000000     0.429000000000     0.669250000000     0          
O        O      0.313150000000     0.375000000000     0.625000000000     0          
O        O      0.331200000000     0.411250000000     0.703000000000     0          
O        O      0.375000000000     0.375000000000     0.500000000000     0          
O        O      0.368600000000     0.291900000000     0.500000000000     0          
O        O      0.250000000000     0.438050000000     0.750000000000     0          
O        O      0.341200000000     0.250000000000     0.702400000000     0          
O        O      0.375000000000     0.250000000000     0.625000000000     0          
T        Si     0.312150000000     0.418750000000     0.655150000000     0          
T        Si     0.351550000000     0.336800000000     0.500000000000     0          
T        Si     0.250000000000     0.449100000000     0.806350000000     0          
T        Si     0.341900000000     0.250000000000     0.644600000000     0          
T        Si     0.361100000000     0.250000000000     0.750000000000     0          
O        O      0.174600000000     0.457900000000     0.875250000000     0          
O        O      0.221250000000     0.429000000000     0.830750000000     0          
O        O      0.186850000000     0.375000000000     0.875000000000     0          
O        O      0.168800000000     0.411250000000     0.797000000000     0          
O        O      0.125000000000     0.375000000000     0.500000000000     0          
O        O      0.131400000000     0.291900000000     0.500000000000     0          
O        O      0.250000000000     0.000000000000     0.686050000000     0          
O        O      0.158800000000     0.250000000000     0.797600000000     0          
O        O      0.125000000000     0.250000000000     0.875000000000     0          
T        Si     0.187850000000     0.418750000000     0.844850000000     0          
T        Si     0.148450000000     0.336800000000     0.500000000000     0          
T        Si     0.250000000000     0.449100000000     0.693650000000     0          
T        Si     0.158100000000     0.250000000000     0.855400000000     0          
O        O      0.325400000000     0.042100000000     0.875250000000     0          
O        O      0.278750000000     0.071000000000     0.830750000000     0          
O        O      0.313150000000     0.125000000000     0.875000000000     0          
O        O      0.331200000000     0.088750000000     0.797000000000     0          
O        O      0.375000000000     0.125000000000     0.500000000000     0          
O        O      0.368600000000     0.208100000000     0.500000000000     0          
O        O      0.341200000000     0.250000000000     0.797600000000     0          
O        O      0.375000000000     0.250000000000     0.875000000000     0          
T        Si     0.312150000000     0.081250000000     0.844850000000     0          
T        Si     0.351550000000     0.163200000000     0.500000000000     0          
T        Si     0.250000000000     0.050900000000     0.693650000000     0          
T        Si     0.341900000000     0.250000000000     0.855400000000     0          
O        O      0.325400000000     0.457900000000     0.875250000000     0          
O        O      0.278750000000     0.429000000000     0.830750000000     0          
O        O      0.313150000000     0.375000000000     0.875000000000     0          
O        O      0.331200000000     0.411250000000     0.797000000000     0          
T        Si     0.312150000000     0.418750000000     0.844850000000     0          
O        O      0.174600000000     0.042100000000     0.875250000000     0          
O        O      0.221250000000     0.071000000000     0.830750000000     0          
O        O      0.186850000000     0.125000000000     0.875000000000     0          
O        O      0.168800000000     0.088750000000     0.797000000000     0          
T        Si     0.187850000000     0.081250000000     0.844850000000     0          
O        O      0.325400000000     0.042100000000     0.624750000000     0          
O        O      0.278750000000     0.071000000000     0.669250000000     0          
O        O      0.313150000000     0.125000000000     0.625000000000     0          
O        O      0.331200000000     0.088750000000     0.703000000000     0          
T        Si     0.312150000000     0.081250000000     0.655150000000     0          
O        O      0.174600000000     0.457900000000     0.624750000000     0          
O        O      0.221250000000     0.429000000000     0.669250000000     0          
O        O      0.186850000000     0.375000000000     0.625000000000     0          
O        O      0.168800000000     0.411250000000     0.703000000000     0          
T        Si     0.187850000000     0.418750000000     0.655150000000     0          
O        O      0.174600000000     0.292100000000     0.874750000000     0          
O        O      0.221250000000     0.321000000000     0.919250000000     0          
O        O      0.168800000000     0.338750000000     0.953000000000     0          
O        O      0.125000000000     0.375000000000     0.750000000000     0          
O        O      0.131400000000     0.458100000000     0.750000000000     0          
O        O      0.250000000000     0.311950000000     0.500000000000     0          
O        O      0.250000000000     0.250000000000     0.563950000000     0          
O        O      0.158800000000     0.000000000000     0.952400000000     0          
O        O      0.125000000000     0.000000000000     0.875000000000     0          
T        Si     0.187850000000     0.331250000000     0.905150000000     0          
T        Si     0.148450000000     0.413200000000     0.750000000000     0          
T        Si     0.250000000000     0.300900000000     0.556350000000     0          
T        Si     0.158100000000     0.000000000000     0.894600000000     0          
T        Si     0.138900000000     0.000000000000     0.500000000000     0          
O        O      0.325400000000     0.207900000000     0.874750000000     0          
O        O      0.278750000000     0.179000000000     0.919250000000     0          
O        O      0.331200000000     0.161250000000     0.953000000000     0          
O        O      0.375000000000     0.125000000000     0.750000000000     0          
O        O      0.368600000000     0.041900000000     0.750000000000     0          
O        O      0.250000000000     0.188050000000     0.500000000000     0          
O        O      0.341200000000     0.000000000000     0.952400000000     0          
O        O      0.375000000000     0.000000000000     0.875000000000     0          
T        Si     0.312150000000     0.168750000000     0.905150000000     0          
T        Si     0.351550000000     0.086800000000     0.750000000000     0          
T        Si     0.250000000000     0.199100000000     0.556350000000     0          
T        Si     0.341900000000     0.000000000000     0.894600000000     0          
T        Si     0.361100000000     0.000000000000     0.500000000000     0          
O        O      0.174600000000     0.207900000000     0.625250000000     0          
O        O      0.221250000000     0.179000000000     0.580750000000     0          
O        O      0.168800000000     0.161250000000     0.547000000000     0          
O        O      0.125000000000     0.125000000000     0.750000000000     0          
O        O      0.131400000000     0.041900000000     0.750000000000     0          
O        O      0.250000000000     0.250000000000     0.936050000000     0          
O        O      0.158800000000     0.000000000000     0.547600000000     0          
O        O      0.125000000000     0.000000000000     0.625000000000     0          
T        Si     0.187850000000     0.168750000000     0.594850000000     0          
T        Si     0.148450000000     0.086800000000     0.750000000000     0          
T        Si     0.250000000000     0.199100000000     0.943650000000     0          
T        Si     0.158100000000     0.000000000000     0.605400000000     0          
O        O      0.325400000000     0.292100000000     0.625250000000     0          
O        O      0.278750000000     0.321000000000     0.580750000000     0          
O        O      0.331200000000     0.338750000000     0.547000000000     0          
O        O      0.375000000000     0.375000000000     0.750000000000     0          
O        O      0.368600000000     0.458100000000     0.750000000000     0          
O        O      0.341200000000     0.000000000000     0.547600000000     0          
O        O      0.375000000000     0.000000000000     0.625000000000     0          
T        Si     0.312150000000     0.331250000000     0.594850000000     0          
T        Si     0.351550000000     0.413200000000     0.750000000000     0          
T        Si     0.250000000000     0.300900000000     0.943650000000     0          
T        Si     0.341900000000     0.000000000000     0.605400000000     0          
O        O      0.325400000000     0.207900000000     0.625250000000     0          
O        O      0.278750000000     0.179000000000     0.580750000000     0          
O        O      0.331200000000     0.161250000000     0.547000000000     0          
T        Si     0.312150000000     0.168750000000     0.594850000000     0          
O        O      0.174600000000     0.292100000000     0.625250000000     0          
O        O      0.221250000000     0.321000000000     0.580750000000     0          
O        O      0.168800000000     0.338750000000     0.547000000000     0          
T        Si     0.187850000000     0.331250000000     0.594850000000     0          
O        O      0.325400000000     0.292100000000     0.874750000000     0          
O        O      0.278750000000     0.321000000000     0.919250000000     0          
O        O      0.331200000000     0.338750000000     0.953000000000     0          
T        Si     0.312150000000     0.331250000000     0.905150000000     0          
O        O      0.174600000000     0.207900000000     0.874750000000     0          
O        O      0.221250000000     0.179000000000     0.919250000000     0          
O        O      0.168800000000     0.161250000000     0.953000000000     0          
T        Si     0.187850000000     0.168750000000     0.905150000000     0          
O        O      0.424600000000     0.042100000000     0.874750000000     0          
O        O      0.471250000000     0.071000000000     0.919250000000     0          
O        O      0.436850000000     0.125000000000     0.875000000000     0          
O        O      0.418800000000     0.088750000000     0.953000000000     0          
O        O      0.381400000000     0.208100000000     0.750000000000     0          
O        O      0.000000000000     0.061950000000     0.500000000000     0          
O        O      0.000000000000     0.000000000000     0.563950000000     0          
O        O      0.408800000000     0.250000000000     0.952400000000     0          
T        Si     0.437850000000     0.081250000000     0.905150000000     0          
T        Si     0.398450000000     0.163200000000     0.750000000000     0          
T        Si     0.000000000000     0.050900000000     0.556350000000     0          
T        Si     0.408100000000     0.250000000000     0.894600000000     0          
T        Si     0.388900000000     0.250000000000     0.500000000000     0          
O        O      0.075400000000     0.457900000000     0.874750000000     0          
O        O      0.028750000000     0.429000000000     0.919250000000     0          
O        O      0.063150000000     0.375000000000     0.875000000000     0          
O        O      0.081200000000     0.411250000000     0.953000000000     0          
O        O      0.118600000000     0.291900000000     0.750000000000     0          
O        O      0.000000000000     0.438050000000     0.500000000000     0          
O        O      0.091200000000     0.250000000000     0.952400000000     0          
T        Si     0.062150000000     0.418750000000     0.905150000000     0          
T        Si     0.101550000000     0.336800000000     0.750000000000     0          
T        Si     0.000000000000     0.449100000000     0.556350000000     0          
T        Si     0.091900000000     0.250000000000     0.894600000000     0          
T        Si     0.111100000000     0.250000000000     0.500000000000     0          
O        O      0.424600000000     0.457900000000     0.625250000000     0          
O        O      0.471250000000     0.429000000000     0.580750000000     0          
O        O      0.436850000000     0.375000000000     0.625000000000     0          
O        O      0.418800000000     0.411250000000     0.547000000000     0          
O        O      0.381400000000     0.291900000000     0.750000000000     0          
O        O      0.000000000000     0.000000000000     0.936050000000     0          
O        O      0.408800000000     0.250000000000     0.547600000000     0          
T        Si     0.437850000000     0.418750000000     0.594850000000     0          
T        Si     0.398450000000     0.336800000000     0.750000000000     0          
T        Si     0.000000000000     0.449100000000     0.943650000000     0          
T        Si     0.408100000000     0.250000000000     0.605400000000     0          
O        O      0.075400000000     0.042100000000     0.625250000000     0          
O        O      0.028750000000     0.071000000000     0.580750000000     0          
O        O      0.063150000000     0.125000000000     0.625000000000     0          
O        O      0.081200000000     0.088750000000     0.547000000000     0          
O        O      0.118600000000     0.208100000000     0.750000000000     0          
O        O      0.091200000000     0.250000000000     0.547600000000     0          
T        Si     0.062150000000     0.081250000000     0.594850000000     0          
T        Si     0.101550000000     0.163200000000     0.750000000000     0          
T        Si     0.000000000000     0.050900000000     0.943650000000     0          
T        Si     0.091900000000     0.250000000000     0.605400000000     0          
O        O      0.075400000000     0.457900000000     0.625250000000     0          
O        O      0.028750000000     0.429000000000     0.580750000000     0          
O        O      0.063150000000     0.375000000000     0.625000000000     0          
O        O      0.081200000000     0.411250000000     0.547000000000     0          
T        Si     0.062150000000     0.418750000000     0.594850000000     0          
O        O      0.424600000000     0.042100000000     0.625250000000     0          
O        O      0.471250000000     0.071000000000     0.580750000000     0          
O        O      0.436850000000     0.125000000000     0.625000000000     0          
O        O      0.418800000000     0.088750000000     0.547000000000     0          
T        Si     0.437850000000     0.081250000000     0.594850000000     0          
O        O      0.075400000000     0.042100000000     0.874750000000     0          
O        O      0.028750000000     0.071000000000     0.919250000000     0          
O        O      0.063150000000     0.125000000000     0.875000000000     0          
O        O      0.081200000000     0.088750000000     0.953000000000     0          
T        Si     0.062150000000     0.081250000000     0.905150000000     0          
O        O      0.424600000000     0.457900000000     0.874750000000     0          
O        O      0.471250000000     0.429000000000     0.919250000000     0          
O        O      0.436850000000     0.375000000000     0.875000000000     0          
O        O      0.418800000000     0.411250000000     0.953000000000     0          
T        Si     0.437850000000     0.418750000000     0.905150000000     0          
O        O      0.424600000000     0.292100000000     0.624750000000     0          
O        O      0.471250000000     0.321000000000     0.669250000000     0          
O        O      0.418800000000     0.338750000000     0.703000000000     0          
O        O      0.381400000000     0.458100000000     0.500000000000     0          
O        O      0.000000000000     0.311950000000     0.750000000000     0          
O        O      0.000000000000     0.250000000000     0.813950000000     0          
O        O      0.408800000000     0.000000000000     0.702400000000     0          
T        Si     0.437850000000     0.331250000000     0.655150000000     0          
T        Si     0.398450000000     0.413200000000     0.500000000000     0          
T        Si     0.000000000000     0.300900000000     0.806350000000     0          
T        Si     0.408100000000     0.000000000000     0.644600000000     0          
T        Si     0.388900000000     0.000000000000     0.750000000000     0          
O        O      0.075400000000     0.207900000000     0.624750000000     0          
O        O      0.028750000000     0.179000000000     0.669250000000     0          
O        O      0.081200000000     0.161250000000     0.703000000000     0          
O        O      0.118600000000     0.041900000000     0.500000000000     0          
O        O      0.000000000000     0.188050000000     0.750000000000     0          
O        O      0.091200000000     0.000000000000     0.702400000000     0          
T        Si     0.062150000000     0.168750000000     0.655150000000     0          
T        Si     0.101550000000     0.086800000000     0.500000000000     0          
T        Si     0.000000000000     0.199100000000     0.806350000000     0          
T        Si     0.091900000000     0.000000000000     0.644600000000     0          
T        Si     0.111100000000     0.000000000000     0.750000000000     0          
O        O      0.424600000000     0.207900000000     0.875250000000     0          
O        O      0.471250000000     0.179000000000     0.830750000000     0          
O        O      0.418800000000     0.161250000000     0.797000000000     0          
O        O      0.381400000000     0.041900000000     0.500000000000     0          
O        O      0.000000000000     0.250000000000     0.686050000000     0          
O        O      0.408800000000     0.000000000000     0.797600000000     0          
T        Si     0.437850000000     0.168750000000     0.844850000000     0          
T        Si     0.398450000000     0.086800000000     0.500000000000     0          
T        Si     0.000000000000     0.199100000000     0.693650000000     0          
T        Si     0.408100000000     0.000000000000     0.855400000000     0          
O        O      0.075400000000     0.292100000000     0.875250000000     0          
O        O      0.028750000000     0.321000000000     0.830750000000     0          
O        O      0.081200000000     0.338750000000     0.797000000000     0          
O        O      0.118600000000     0.458100000000     0.500000000000     0          
O        O      0.091200000000     0.000000000000     0.797600000000     0          
T        Si     0.062150000000     0.331250000000     0.844850000000     0          
T        Si     0.101550000000     0.413200000000     0.500000000000     0          
T        Si     0.000000000000     0.300900000000     0.693650000000     0          
T        Si     0.091900000000     0.000000000000     0.855400000000     0          
O        O      0.075400000000     0.207900000000     0.875250000000     0          
O        O      0.028750000000     0.179000000000     0.830750000000     0          
O        O      0.081200000000     0.161250000000     0.797000000000     0          
T        Si     0.062150000000     0.168750000000     0.844850000000     0          
O        O      0.424600000000     0.292100000000     0.875250000000     0          
O        O      0.471250000000     0.321000000000     0.830750000000     0          
O        O      0.418800000000     0.338750000000     0.797000000000     0          
T        Si     0.437850000000     0.331250000000     0.844850000000     0          
O        O      0.075400000000     0.292100000000     0.624750000000     0          
O        O      0.028750000000     0.321000000000     0.669250000000     0          
O        O      0.081200000000     0.338750000000     0.703000000000     0          
T        Si     0.062150000000     0.331250000000     0.655150000000     0          
O        O      0.424600000000     0.207900000000     0.624750000000     0          
O        O      0.471250000000     0.179000000000     0.669250000000     0          
O        O      0.418800000000     0.161250000000     0.703000000000     0          
T        Si     0.437850000000     0.168750000000     0.655150000000     0          
O        O      0.174600000000     0.542100000000     0.124750000000     0          
O        O      0.221250000000     0.571000000000     0.169250000000     0          
O        O      0.186850000000     0.625000000000     0.125000000000     0          
O        O      0.168800000000     0.588750000000     0.203000000000     0          
O        O      0.125000000000     0.625000000000     0.000000000000     0          
O        O      0.131400000000     0.708100000000     0.000000000000     0          
O        O      0.250000000000     0.561950000000     0.250000000000     0          
O        O      0.250000000000     0.500000000000     0.313950000000     0          
O        O      0.158800000000     0.750000000000     0.202400000000     0          
O        O      0.125000000000     0.750000000000     0.125000000000     0          
T        Si     0.187850000000     0.581250000000     0.155150000000     0          
T        Si     0.148450000000     0.663200000000     0.000000000000     0          
T        Si     0.250000000000     0.550900000000     0.306350000000     0          
T        Si     0.158100000000     0.750000000000     0.144600000000     0          
T        Si     0.138900000000     0.750000000000     0.250000000000     0          
O        O      0.325400000000     0.957900000000     0.124750000000     0          
O        O      0.278750000000     0.929000000000     0.169250000000     0          
O        O      0.313150000000     0.875000000000     0.125000000000     0          
O        O      0.331200000000     0.911250000000     0.203000000000     0          
O        O      0.375000000000     0.875000000000     0.000000000000     0          
O        O      0.368600000000     0.791900000000     0.000000000000     0          
O        O      0.250000000000     0.938050000000     0.250000000000     0          
O        O      0.341200000000     0.750000000000     0.202400000000     0          
O        O      0.375000000000     0.750000000000     0.125000000000     0          
T        Si     0.312150000000     0.918750000000     0.155150000000     0          
T        Si     0.351550000000     0.836800000000     0.000000000000     0          
T        Si     0.250000000000     0.949100000000     0.306350000000     0          
T        Si     0.341900000000     0.750000000000     0.144600000000     0          
T        Si     0.361100000000     0.750000000000     0.250000000000     0          
O        O      0.174600000000     0.957900000000     0.375250000000     0          
O        O      0.221250000000     0.929000000000     0.330750000000     0          
O        O      0.186850000000     0.875000000000     0.375000000000     0          
O        O      0.168800000000     0.911250000000     0.297000000000     0          
O        O      0.125000000000     0.875000000000     0.000000000000     0          
O        O      0.131400000000     0.791900000000     0.000000000000     0          
O        O      0.250000000000     0.500000000000     0.186050000000     0          
O        O      0.158800000000     0.750000000000     0.297600000000     0          
O        O      0.125000000000     0.750000000000     0.375000000000     0          
T        Si     0.187850000000     0.918750000000     0.344850000000     0          
T        Si     0.148450000000     0.836800000000     0.000000000000     0          
T        Si     0.250000000000     0.949100000000     0.193650000000     0          
T        Si     0.158100000000     0.750000000000     0.355400000000     0          
O        O      0.325400000000     0.542100000000     0.375250000000     0          
O        O      0.278750000000     0.571000000000     0.330750000000     0          
O        O      0.313150000000     0.625000000000     0.375000000000     0          
O        O      0.331200000000     0.588750000000     0.297000000000     0          
O        O      0.375000000000     0.625000000000     0.000000000000     0          
O        O      0.368600000000     0.708100000000     0.000000000000     0          
O        O      0.341200000000     0.750000000000     0.297600000000     0          
O        O      0.375000000000     0.750000000000     0.375000000000     0          
T        Si     0.312150000000     0.581250000000     0.344850000000     0          
T        Si     0.351550000000     0.663200000000     0.000000000000     0          
T        Si     0.250000000000     0.550900000000     0.193650000000     0          
T        Si     0.341900000000     0.750000000000     0.355400000000     0          
O        O      0.325400000000     0.957900000000     0.375250000000     0          
O        O      0.278750000000     0.929000000000     0.330750000000     0          
O        O      0.313150000000     0.875000000000     0.375000000000     0          
O        O      0.331200000000     0.911250000000     0.297000000000     0          
T        Si     0.312150000000     0.918750000000     0.344850000000     0          
O        O      0.174600000000     0.542100000000     0.375250000000     0          
O        O      0.221250000000     0.571000000000     0.330750000000     0          
O        O      0.186850000000     0.625000000000     0.375000000000     0          
O        O      0.168800000000     0.588750000000     0.297000000000     0          
T        Si     0.187850000000     0.581250000000     0.344850000000     0          
O        O      0.325400000000     0.542100000000     0.124750000000     0          
O        O      0.278750000000     0.571000000000     0.169250000000     0          
O        O      0.313150000000     0.625000000000     0.125000000000     0          
O        O      0.331200000000     0.588750000000     0.203000000000     0          
T        Si     0.312150000000     0.581250000000     0.155150000000     0          
O        O      0.174600000000     0.957900000000     0.124750000000     0          
O        O      0.221250000000     0.929000000000     0.169250000000     0          
O        O      0.186850000000     0.875000000000     0.125000000000     0          
O        O      0.168800000000     0.911250000000     0.203000000000     0          
T        Si     0.187850000000     0.918750000000     0.155150000000     0          
O        O      0.174600000000     0.792100000000     0.374750000000     0          
O        O      0.221250000000     0.821000000000     0.419250000000     0          
O        O      0.168800000000     0.838750000000     0.453000000000     0          
O        O      0.125000000000     0.875000000000     0.250000000000     0          
O        O      0.131400000000     0.958100000000     0.250000000000     0          
O        O      0.250000000000     0.811950000000     0.000000000000     0          
O        O      0.250000000000     0.750000000000     0.063950000000     0          
O        O      0.158800000000     0.500000000000     0.452400000000     0          
O        O      0.125000000000     0.500000000000     0.375000000000     0          
T        Si     0.187850000000     0.831250000000     0.405150000000     0          
T        Si     0.148450000000     0.913200000000     0.250000000000     0          
T        Si     0.250000000000     0.800900000000     0.056350000000     0          
T        Si     0.158100000000     0.500000000000     0.394600000000     0          
T        Si     0.138900000000     0.500000000000     0.000000000000     0          
O        O      0.325400000000     0.707900000000     0.374750000000     0          
O        O      0.278750000000     0.679000000000     0.419250000000     0          
O        O      0.331200000000     0.661250000000     0.453000000000     0          
O        O      0.375000000000     0.625000000000     0.250000000000     0          
O        O      0.368600000000     0.541900000000     0.250000000000     0          
O        O      0.250000000000     0.688050000000     0.000000000000     0          
O        O      0.341200000000     0.500000000000     0.452400000000     0          
O        O      0.375000000000     0.500000000000     0.375000000000     0          
T        Si     0.312150000000     0.668750000000     0.405150000000     0          
T        Si     0.351550000000     0.586800000000     0.250000000000     0          
T        Si     0.250000000000     0.699100000000     0.056350000000     0          
T        Si     0.341900000000     0.500000000000     0.394600000000     0          
T        Si     0.361100000000     0.500000000000     0.000000000000     0          
O        O      0.174600000000     0.707900000000     0.125250000000     0          
O        O      0.221250000000     0.679000000000     0.080750000000     0          
O        O      0.168800000000     0.661250000000     0.047000000000     0          
O        O      0.125000000000     0.625000000000     0.250000000000     0          
O        O      0.131400000000     0.541900000000     0.250000000000     0          
O        O      0.250000000000     0.750000000000     0.436050000000     0          
O        O      0.158800000000     0.500000000000     0.047600000000     0          
O        O      0.125000000000     0.500000000000     0.125000000000     0          
T        Si     0.187850000000     0.668750000000     0.094850000000     0          
T        Si     0.148450000000     0.586800000000     0.250000000000     0          
T        Si     0.250000000000     0.699100000000     0.443650000000     0          
T        Si     0.158100000000     0.500000000000     0.105400000000     0          
O        O      0.325400000000     0.792100000000     0.125250000000     0          
O        O      0.278750000000     0.821000000000     0.080750000000     0          
O        O      0.331200000000     0.838750000000     0.047000000000     0          
O        O      0.375000000000     0.875000000000     0.250000000000     0          
O        O      0.368600000000     0.958100000000     0.250000000000     0          
O        O      0.341200000000     0.500000000000     0.047600000000     0          
O        O      0.375000000000     0.500000000000     0.125000000000     0          
T        Si     0.312150000000     0.831250000000     0.094850000000     0          
T        Si     0.351550000000     0.913200000000     0.250000000000     0          
T        Si     0.250000000000     0.800900000000     0.443650000000     0          
T        Si     0.341900000000     0.500000000000     0.105400000000     0          
O        O      0.325400000000     0.707900000000     0.125250000000     0          
O        O      0.278750000000     0.679000000000     0.080750000000     0          
O        O      0.331200000000     0.661250000000     0.047000000000     0          
T        Si     0.312150000000     0.668750000000     0.094850000000     0          
O        O      0.174600000000     0.792100000000     0.125250000000     0          
O        O      0.221250000000     0.821000000000     0.080750000000     0          
O        O      0.168800000000     0.838750000000     0.047000000000     0          
T        Si     0.187850000000     0.831250000000     0.094850000000     0          
O        O      0.325400000000     0.792100000000     0.374750000000     0          
O        O      0.278750000000     0.821000000000     0.419250000000     0          
O        O      0.331200000000     0.838750000000     0.453000000000     0          
T        Si     0.312150000000     0.831250000000     0.405150000000     0          
O        O      0.174600000000     0.707900000000     0.374750000000     0          
O        O      0.221250000000     0.679000000000     0.419250000000     0          
O        O      0.168800000000     0.661250000000     0.453000000000     0          
T        Si     0.187850000000     0.668750000000     0.405150000000     0          
O        O      0.424600000000     0.542100000000     0.374750000000     0          
O        O      0.471250000000     0.571000000000     0.419250000000     0          
O        O      0.436850000000     0.625000000000     0.375000000000     0          
O        O      0.418800000000     0.588750000000     0.453000000000     0          
O        O      0.381400000000     0.708100000000     0.250000000000     0          
O        O      0.000000000000     0.561950000000     0.000000000000     0          
O        O      0.000000000000     0.500000000000     0.063950000000     0          
O        O      0.408800000000     0.750000000000     0.452400000000     0          
T        Si     0.437850000000     0.581250000000     0.405150000000     0          
T        Si     0.398450000000     0.663200000000     0.250000000000     0          
T        Si     0.000000000000     0.550900000000     0.056350000000     0          
T        Si     0.408100000000     0.750000000000     0.394600000000     0          
T        Si     0.388900000000     0.750000000000     0.000000000000     0          
O        O      0.075400000000     0.957900000000     0.374750000000     0          
O        O      0.028750000000     0.929000000000     0.419250000000     0          
O        O      0.063150000000     0.875000000000     0.375000000000     0          
O        O      0.081200000000     0.911250000000     0.453000000000     0          
O        O      0.118600000000     0.791900000000     0.250000000000     0          
O        O      0.000000000000     0.938050000000     0.000000000000     0          
O        O      0.091200000000     0.750000000000     0.452400000000     0          
T        Si     0.062150000000     0.918750000000     0.405150000000     0          
T        Si     0.101550000000     0.836800000000     0.250000000000     0          
T        Si     0.000000000000     0.949100000000     0.056350000000     0          
T        Si     0.091900000000     0.750000000000     0.394600000000     0          
T        Si     0.111100000000     0.750000000000     0.000000000000     0          
O        O      0.424600000000     0.957900000000     0.125250000000     0          
O        O      0.471250000000     0.929000000000     0.080750000000     0          
O        O      0.436850000000     0.875000000000     0.125000000000     0          
O        O      0.418800000000     0.911250000000     0.047000000000     0          
O        O      0.381400000000     0.791900000000     0.250000000000     0          
O        O      0.000000000000     0.500000000000     0.436050000000     0          
O        O      0.408800000000     0.750000000000     0.047600000000     0          
T        Si     0.437850000000     0.918750000000     0.094850000000     0          
T        Si     0.398450000000     0.836800000000     0.250000000000     0          
T        Si     0.000000000000     0.949100000000     0.443650000000     0          
T        Si     0.408100000000     0.750000000000     0.105400000000     0          
O        O      0.075400000000     0.542100000000     0.125250000000     0          
O        O      0.028750000000     0.571000000000     0.080750000000     0          
O        O      0.063150000000     0.625000000000     0.125000000000     0          
O        O      0.081200000000     0.588750000000     0.047000000000     0          
O        O      0.118600000000     0.708100000000     0.250000000000     0          
O        O      0.091200000000     0.750000000000     0.047600000000     0          
T        Si     0.062150000000     0.581250000000     0.094850000000     0          
T        Si     0.101550000000     0.663200000000     0.250000000000     0          
T        Si     0.000000000000     0.550900000000     0.443650000000     0          
T        Si     0.091900000000     0.750000000000     0.105400000000     0          
O        O      0.075400000000     0.957900000000     0.125250000000     0          
O        O      0.028750000000     0.929000000000     0.080750000000     0          
O        O      0.063150000000     0.875000000000     0.125000000000     0          
O        O      0.081200000000     0.911250000000     0.047000000000     0          
T        Si     0.062150000000     0.918750000000     0.094850000000     0          
O        O      0.424600000000     0.542100000000     0.125250000000     0          
O        O      0.471250000000     0.571000000000     0.080750000000     0          
O        O      0.436850000000     0.625000000000     0.125000000000     0          
O        O      0.418800000000     0.588750000000     0.047000000000     0          
T        Si     0.437850000000     0.581250000000     0.094850000000     0          
O        O      0.075400000000     0.542100000000     0.374750000000     0          
O        O      0.028750000000     0.571000000000     0.419250000000     0          
O        O      0.063150000000     0.625000000000     0.375000000000     0          
O        O      0.081200000000     0.588750000000     0.453000000000     0          
T        Si     0.062150000000     0.581250000000     0.405150000000     0          
O        O      0.424600000000     0.957900000000     0.374750000000     0          
O        O      0.471250000000     0.929000000000     0.419250000000     0          
O        O      0.436850000000     0.875000000000     0.375000000000     0          
O        O      0.418800000000     0.911250000000     0.453000000000     0          
T        Si     0.437850000000     0.918750000000     0.405150000000     0          
O        O      0.424600000000     0.792100000000     0.124750000000     0          
O        O      0.471250000000     0.821000000000     0.169250000000     0          
O        O      0.418800000000     0.838750000000     0.203000000000     0          
O        O      0.381400000000     0.958100000000     0.000000000000     0          
O        O      0.000000000000     0.811950000000     0.250000000000     0          
O        O      0.000000000000     0.750000000000     0.313950000000     0          
O        O      0.408800000000     0.500000000000     0.202400000000     0          
T        Si     0.437850000000     0.831250000000     0.155150000000     0          
T        Si     0.398450000000     0.913200000000     0.000000000000     0          
T        Si     0.000000000000     0.800900000000     0.306350000000     0          
T        Si     0.408100000000     0.500000000000     0.144600000000     0          
T        Si     0.388900000000     0.500000000000     0.250000000000     0          
O        O      0.075400000000     0.707900000000     0.124750000000     0          
O        O      0.028750000000     0.679000000000     0.169250000000     0          
O        O      0.081200000000     0.661250000000     0.203000000000     0          
O        O      0.118600000000     0.541900000000     0.000000000000     0          
O        O      0.000000000000     0.688050000000     0.250000000000     0          
O        O      0.091200000000     0.500000000000     0.202400000000     0          
T        Si     0.062150000000     0.668750000000     0.155150000000     0          
T        Si     0.101550000000     0.586800000000     0.000000000000     0          
T        Si     0.000000000000     0.699100000000     0.306350000000     0          
T        Si     0.091900000000     0.500000000000     0.144600000000     0          
T        Si     0.111100000000     0.500000000000     0.250000000000     0          
O        O      0.424600000000     0.707900000000     0.375250000000     0          
O        O      0.471250000000     0.679000000000     0.330750000000     0          
O        O      0.418800000000     0.661250000000     0.297000000000     0          
O        O      0.381400000000     0.541900000000     0.000000000000     0          
O        O      0.000000000000     0.750000000000     0.186050000000     0          
O        O      0.408800000000     0.500000000000     0.297600000000     0          
T        Si     0.437850000000     0.668750000000     0.344850000000     0          
T        Si     0.398450000000     0.586800000000     0.000000000000     0          
T        Si     0.000000000000     0.699100000000     0.193650000000     0          
T        Si     0.408100000000     0.500000000000     0.355400000000     0          
O        O      0.075400000000     0.792100000000     0.375250000000     0          
O        O      0.028750000000     0.821000000000     0.330750000000     0          
O        O      0.081200000000     0.838750000000     0.297000000000     0          
O        O      0.118600000000     0.958100000000     0.000000000000     0          
O        O      0.091200000000     0.500000000000     0.297600000000     0          
T        Si     0.062150000000     0.831250000000     0.344850000000     0          
T        Si     0.101550000000     0.913200000000     0.000000000000     0          
T        Si     0.000000000000     0.800900000000     0.193650000000     0          
T        Si     0.091900000000     0.500000000000     0.355400000000     0          
O        O      0.075400000000     0.707900000000     0.375250000000     0          
O        O      0.028750000000     0.679000000000     0.330750000000     0          
O        O      0.081200000000     0.661250000000     0.297000000000     0          
T        Si     0.062150000000     0.668750000000     0.344850000000     0          
O        O      0.424600000000     0.792100000000     0.375250000000     0          
O        O      0.471250000000     0.821000000000     0.330750000000     0          
O        O      0.418800000000     0.838750000000     0.297000000000     0          
T        Si     0.437850000000     0.831250000000     0.344850000000     0          
O        O      0.075400000000     0.792100000000     0.124750000000     0          
O        O      0.028750000000     0.821000000000     0.169250000000     0          
O        O      0.081200000000     0.838750000000     0.203000000000     0          
T        Si     0.062150000000     0.831250000000     0.155150000000     0          
O        O      0.424600000000     0.707900000000     0.124750000000     0          
O        O      0.471250000000     0.679000000000     0.169250000000     0          
O        O      0.418800000000     0.661250000000     0.203000000000     0          
T        Si     0.437850000000     0.668750000000     0.155150000000     0          
O        O      0.174600000000     0.542100000000     0.624750000000     0          
O        O      0.221250000000     0.571000000000     0.669250000000     0          
O        O      0.186850000000     0.625000000000     0.625000000000     0          
O        O      0.168800000000     0.588750000000     0.703000000000     0          
O        O      0.125000000000     0.625000000000     0.500000000000     0          
O        O      0.131400000000     0.708100000000     0.500000000000     0          
O        O      0.250000000000     0.561950000000     0.750000000000     0          
O        O      0.250000000000     0.500000000000     0.813950000000     0          
O        O      0.158800000000     0.750000000000     0.702400000000     0          
O        O      0.125000000000     0.750000000000     0.625000000000     0          
T        Si     0.187850000000     0.581250000000     0.655150000000     0          
T        Si     0.148450000000     0.663200000000     0.500000000000     0          
T        Si     0.250000000000     0.550900000000     0.806350000000     0          
T        Si     0.158100000000     0.750000000000     0.644600000000     0          
T        Si     0.138900000000     0.750000000000     0.750000000000     0          
O        O      0.325400000000     0.957900000000     0.624750000000     0          
O        O      0.278750000000     0.929000000000     0.669250000000     0          
O        O      0.313150000000     0.875000000000     0.625000000000     0          
O        O      0.331200000000     0.911250000000     0.703000000000     0          
O        O      0.375000000000     0.875000000000     0.500000000000     0          
O        O      0.368600000000     0.791900000000     0.500000000000     0          
O        O      0.250000000000     0.938050000000     0.750000000000     0          
O        O      0.341200000000     0.750000000000     0.702400000000     0          
O        O      0.375000000000     0.750000000000     0.625000000000     0          
T        Si     0.312150000000     0.918750000000     0.655150000000     0          
T        Si     0.351550000000     0.836800000000     0.500000000000     0          
T        Si     0.250000000000     0.949100000000     0.806350000000     0          
T        Si     0.341900000000     0.750000000000     0.644600000000     0          
T        Si     0.361100000000     0.750000000000     0.750000000000     0          
O        O      0.174600000000     0.957900000000     0.875250000000     0          
O        O      0.221250000000     0.929000000000     0.830750000000     0          
O        O      0.186850000000     0.875000000000     0.875000000000     0          
O        O      0.168800000000     0.911250000000     0.797000000000     0          
O        O      0.125000000000     0.875000000000     0.500000000000     0          
O        O      0.131400000000     0.791900000000     0.500000000000     0          
O        O      0.250000000000     0.500000000000     0.686050000000     0          
O        O      0.158800000000     0.750000000000     0.797600000000     0          
O        O      0.125000000000     0.750000000000     0.875000000000     0          
T        Si     0.187850000000     0.918750000000     0.844850000000     0          
T        Si     0.148450000000     0.836800000000     0.500000000000     0          
T        Si     0.250000000000     0.949100000000     0.693650000000     0          
T        Si     0.158100000000     0.750000000000     0.855400000000     0          
O        O      0.325400000000     0.542100000000     0.875250000000     0          
O        O      0.278750000000     0.571000000000     0.830750000000     0          
O        O      0.313150000000     0.625000000000     0.875000000000     0          
O        O      0.331200000000     0.588750000000     0.797000000000     0          
O        O      0.375000000000     0.625000000000     0.500000000000     0          
O        O      0.368600000000     0.708100000000     0.500000000000     0          
O        O      0.341200000000     0.750000000000     0.797600000000     0          
O        O      0.375000000000     0.750000000000     0.875000000000     0          
T        Si     0.312150000000     0.581250000000     0.844850000000     0          
T        Si     0.351550000000     0.663200000000     0.500000000000     0          
T        Si     0.250000000000     0.550900000000     0.693650000000     0          
T        Si     0.341900000000     0.750000000000     0.855400000000     0          
O        O      0.325400000000     0.957900000000     0.875250000000     0          
O        O      0.278750000000     0.929000000000     0.830750000000     0          
O        O      0.313150000000     0.875000000000     0.875000000000     0          
O        O      0.331200000000     0.911250000000     0.797000000000     0          
T        Si     0.312150000000     0.918750000000     0.844850000000     0          
O        O      0.174600000000     0.542100000000     0.875250000000     0          
O        O      0.221250000000     0.571000000000     0.830750000000     0          
O        O      0.186850000000     0.625000000000     0.875000000000     0          
O        O      0.168800000000     0.588750000000     0.797000000000     0          
T        Si     0.187850000000     0.581250000000     0.844850000000     0          
O        O      0.325400000000     0.542100000000     0.624750000000     0          
O        O      0.278750000000     0.571000000000     0.669250000000     0          
O        O      0.313150000000     0.625000000000     0.625000000000     0          
O        O      0.331200000000     0.588750000000     0.703000000000     0          
T        Si     0.312150000000     0.581250000000     0.655150000000     0          
O        O      0.174600000000     0.957900000000     0.624750000000     0          
O        O      0.221250000000     0.929000000000     0.669250000000     0          
O        O      0.186850000000     0.875000000000     0.625000000000     0          
O        O      0.168800000000     0.911250000000     0.703000000000     0          
T        Si     0.187850000000     0.918750000000     0.655150000000     0          
O        O      0.174600000000     0.792100000000     0.874750000000     0          
O        O      0.221250000000     0.821000000000     0.919250000000     0          
O        O      0.168800000000     0.838750000000     0.953000000000     0          
O        O      0.125000000000     0.875000000000     0.750000000000     0          
O        O      0.131400000000     0.958100000000     0.750000000000     0          
O        O      0.250000000000     0.811950000000     0.500000000000     0          
O        O      0.250000000000     0.750000000000     0.563950000000     0          
O        O      0.158800000000     0.500000000000     0.952400000000     0          
O        O      0.125000000000     0.500000000000     0.875000000000     0          
T        Si     0.187850000000     0.831250000000     0.905150000000     0          
T        Si     0.148450000000     0.913200000000     0.750000000000     0          
T        Si     0.250000000000     0.800900000000     0.556350000000     0          
T        Si     0.158100000000     0.500000000000     0.894600000000     0          
T        Si     0.138900000000     0.500000000000     0.500000000000     0          
O        O      0.325400000000     0.707900000000     0.874750000000     0          
O        O      0.278750000000     0.679000000000     0.919250000000     0          
O        O      0.331200000000     0.661250000000     0.953000000000     0          
O        O      0.375000000000     0.625000000000     0.750000000000     0          
O        O      0.368600000000     0.541900000000     0.750000000000     0          
O        O      0.250000000000     0.688050000000     0.500000000000     0          
O        O      0.341200000000     0.500000000000     0.952400000000     0          
O        O      0.375000000000     0.500000000000     0.875000000000     0          
T        Si     0.312150000000     0.668750000000     0.905150000000     0          
T        Si     0.351550000000     0.586800000000     0.750000000000     0          
T        Si     0.250000000000     0.699100000000     0.556350000000     0          
T        Si     0.341900000000     0.500000000000     0.894600000000     0          
T        Si     0.361100000000     0.500000000000     0.500000000000     0          
O        O      0.174600000000     0.707900000000     0.625250000000     0          
O        O      0.221250000000     0.679000000000     0.580750000000     0          
O        O      0.168800000000     0.661250000000     0.547000000000     0          
O        O      0.125000000000     0.625000000000     0.750000000000     0          
O        O      0.131400000000     0.541900000000     0.750000000000     0          
O        O      0.250000000000     0.750000000000     0.936050000000     0          
O        O      0.158800000000     0.500000000000     0.547600000000     0          
O        O      0.125000000000     0.500000000000     0.625000000000     0          
T        Si     0.187850000000     0.668750000000     0.594850000000     0          
T        Si     0.148450000000     0.586800000000     0.750000000000     0          
T        Si     0.250000000000     0.699100000000     0.943650000000     0          
T        Si     0.158100000000     0.500000000000     0.605400000000     0          
O        O      0.325400000000     0.792100000000     0.625250000000     0          
O        O      0.278750000000     0.821000000000     0.580750000000     0          
O        O      0.331200000000     0.838750000000     0.547000000000     0          
O        O      0.375000000000     0.875000000000     0.750000000000     0          
O        O      0.368600000000     0.958100000000     0.750000000000     0          
O        O      0.341200000000     0.500000000000     0.547600000000     0          
O        O      0.375000000000     0.500000000000     0.625000000000     0          
T        Si     0.312150000000     0.831250000000     0.594850000000     0          
T        Si     0.351550000000     0.913200000000     0.750000000000     0          
T        Si     0.250000000000     0.800900000000     0.943650000000     0          
T        Si     0.341900000000     0.500000000000     0.605400000000     0          
O        O      0.325400000000     0.707900000000     0.625250000000     0          
O        O      0.278750000000     0.679000000000     0.580750000000     0          
O        O      0.331200000000     0.661250000000     0.547000000000     0          
T        Si     0.312150000000     0.668750000000     0.594850000000     0          
O        O      0.174600000000     0.792100000000     0.625250000000     0          
O        O      0.221250000000     0.821000000000     0.580750000000     0          
O        O      0.168800000000     0.838750000000     0.547000000000     0          
T        Si     0.187850000000     0.831250000000     0.594850000000     0          
O        O      0.325400000000     0.792100000000     0.874750000000     0          
O        O      0.278750000000     0.821000000000     0.919250000000     0          
O        O      0.331200000000     0.838750000000     0.953000000000     0          
T        Si     0.312150000000     0.831250000000     0.905150000000     0          
O        O      0.174600000000     0.707900000000     0.874750000000     0          
O        O      0.221250000000     0.679000000000     0.919250000000     0          
O        O      0.168800000000     0.661250000000     0.953000000000     0          
T        Si     0.187850000000     0.668750000000     0.905150000000     0          
O        O      0.424600000000     0.542100000000     0.874750000000     0          
O        O      0.471250000000     0.571000000000     0.919250000000     0          
O        O      0.436850000000     0.625000000000     0.875000000000     0          
O        O      0.418800000000     0.588750000000     0.953000000000     0          
O        O      0.381400000000     0.708100000000     0.750000000000     0          
O        O      0.000000000000     0.561950000000     0.500000000000     0          
O        O      0.000000000000     0.500000000000     0.563950000000     0          
O        O      0.408800000000     0.750000000000     0.952400000000     0          
T        Si     0.437850000000     0.581250000000     0.905150000000     0          
T        Si     0.398450000000     0.663200000000     0.750000000000     0          
T        Si     0.000000000000     0.550900000000     0.556350000000     0          
T        Si     0.408100000000     0.750000000000     0.894600000000     0          
T        Si     0.388900000000     0.750000000000     0.500000000000     0          
O        O      0.075400000000     0.957900000000     0.874750000000     0          
O        O      0.028750000000     0.929000000000     0.919250000000     0          
O        O      0.063150000000     0.875000000000     0.875000000000     0          
O        O      0.081200000000     0.911250000000     0.953000000000     0          
O        O      0.118600000000     0.791900000000     0.750000000000     0          
O        O      0.000000000000     0.938050000000     0.500000000000     0          
O        O      0.091200000000     0.750000000000     0.952400000000     0          
T        Si     0.062150000000     0.918750000000     0.905150000000     0          
T        Si     0.101550000000     0.836800000000     0.750000000000     0          
T        Si     0.000000000000     0.949100000000     0.556350000000     0          
T        Si     0.091900000000     0.750000000000     0.894600000000     0          
T        Si     0.111100000000     0.750000000000     0.500000000000     0          
O        O      0.424600000000     0.957900000000     0.625250000000     0          
O        O      0.471250000000     0.929000000000     0.580750000000     0          
O        O      0.436850000000     0.875000000000     0.625000000000     0          
O        O      0.418800000000     0.911250000000     0.547000000000     0          
O        O      0.381400000000     0.791900000000     0.750000000000     0          
O        O      0.000000000000     0.500000000000     0.936050000000     0          
O        O      0.408800000000     0.750000000000     0.547600000000     0          
T        Si     0.437850000000     0.918750000000     0.594850000000     0          
T        Si     0.398450000000     0.836800000000     0.750000000000     0          
T        Si     0.000000000000     0.949100000000     0.943650000000     0          
T        Si     0.408100000000     0.750000000000     0.605400000000     0          
O        O      0.075400000000     0.542100000000     0.625250000000     0          
O        O      0.028750000000     0.571000000000     0.580750000000     0          
O        O      0.063150000000     0.625000000000     0.625000000000     0          
O        O      0.081200000000     0.588750000000     0.547000000000     0          
O        O      0.118600000000     0.708100000000     0.750000000000     0          
O        O      0.091200000000     0.750000000000     0.547600000000     0          
T        Si     0.062150000000     0.581250000000     0.594850000000     0          
T        Si     0.101550000000     0.663200000000     0.750000000000     0          
T        Si     0.000000000000     0.550900000000     0.943650000000     0          
T        Si     0.091900000000     0.750000000000     0.605400000000     0          
O        O      0.075400000000     0.957900000000     0.625250000000     0          
O        O      0.028750000000     0.929000000000     0.580750000000     0          
O        O      0.063150000000     0.875000000000     0.625000000000     0          
O        O      0.081200000000     0.911250000000     0.547000000000     0          
T        Si     0.062150000000     0.918750000000     0.594850000000     0          
O        O      0.424600000000     0.542100000000     0.625250000000     0          
O        O      0.471250000000     0.571000000000     0.580750000000     0          
O        O      0.436850000000     0.625000000000     0.625000000000     0          
O        O      0.418800000000     0.588750000000     0.547000000000     0          
T        Si     0.437850000000     0.581250000000     0.594850000000     0          
O        O      0.075400000000     0.542100000000     0.874750000000     0          
O        O      0.028750000000     0.571000000000     0.919250000000     0          
O        O      0.063150000000     0.625000000000     0.875000000000     0          
O        O      0.081200000000     0.588750000000     0.953000000000     0          
T        Si     0.062150000000     0.581250000000     0.905150000000     0          
O        O      0.424600000000     0.957900000000     0.874750000000     0          
O        O      0.471250000000     0.929000000000     0.919250000000     0          
O        O      0.436850000000     0.875000000000     0.875000000000     0          
O        O      0.418800000000     0.911250000000     0.953000000000     0          
T        Si     0.437850000000     0.918750000000     0.905150000000     0          
O        O      0.424600000000     0.792100000000     0.624750000000     0          
O        O      0.471250000000     0.821000000000     0.669250000000     0          
O        O      0.418800000000     0.838750000000     0.703000000000     0          
O        O      0.381400000000     0.958100000000     0.500000000000     0          
O        O      0.000000000000     0.811950000000     0.750000000000     0          
O        O      0.000000000000     0.750000000000     0.813950000000     0          
O        O      0.408800000000     0.500000000000     0.702400000000     0          
T        Si     0.437850000000     0.831250000000     0.655150000000     0          
T        Si     0.398450000000     0.913200000000     0.500000000000     0          
T        Si     0.000000000000     0.800900000000     0.806350000000     0          
T        Si     0.408100000000     0.500000000000     0.644600000000     0          
T        Si     0.388900000000     0.500000000000     0.750000000000     0          
O        O      0.075400000000     0.707900000000     0.624750000000     0          
O        O      0.028750000000     0.679000000000     0.669250000000     0          
O        O      0.081200000000     0.661250000000     0.703000000000     0          
O        O      0.118600000000     0.541900000000     0.500000000000     0          
O        O      0.000000000000     0.688050000000     0.750000000000     0          
O        O      0.091200000000     0.500000000000     0.702400000000     0          
T        Si     0.062150000000     0.668750000000     0.655150000000     0          
T        Si     0.101550000000     0.586800000000     0.500000000000     0          
T        Si     0.000000000000     0.699100000000     0.806350000000     0          
T        Si     0.091900000000     0.500000000000     0.644600000000     0          
T        Si     0.111100000000     0.500000000000     0.750000000000     0          
O        O      0.424600000000     0.707900000000     0.875250000000     0          
O        O      0.471250000000     0.679000000000     0.830750000000     0          
O        O      0.418800000000     0.661250000000     0.797000000000     0          
O        O      0.381400000000     0.541900000000     0.500000000000     0          
O        O      0.000000000000     0.750000000000     0.686050000000     0          
O        O      0.408800000000     0.500000000000     0.797600000000     0          
T        Si     0.437850000000     0.668750000000     0.844850000000     0          
T        Si     0.398450000000     0.586800000000     0.500000000000     0          
T        Si     0.000000000000     0.699100000000     0.693650000000     0          
T        Si     0.408100000000     0.500000000000     0.855400000000     0          
O        O      0.075400000000     0.792100000000     0.875250000000     0          
O        O      0.028750000000     0.821000000000     0.830750000000     0          
O        O      0.081200000000     0.838750000000     0.797000000000     0          
O        O      0.118600000000     0.958100000000     0.500000000000     0          
O        O      0.091200000000     0.500000000000     0.797600000000     0          
T        Si     0.062150000000     0.831250000000     0.844850000000     0          
T        Si     0.101550000000     0.913200000000     0.500000000000     0          
T        Si     0.000000000000     0.800900000000     0.693650000000     0          
T        Si     0.091900000000     0.500000000000     0.855400000000     0          
O        O      0.075400000000     0.707900000000     0.875250000000     0          
O        O      0.028750000000     0.679000000000     0.830750000000     0          
O        O      0.081200000000     0.661250000000     0.797000000000     0          
T        Si     0.062150000000     0.668750000000     0.844850000000     0          
O        O      0.424600000000     0.792100000000     0.875250000000     0          
O        O      0.471250000000     0.821000000000     0.830750000000     0          
O        O      0.418800000000     0.838750000000     0.797000000000     0          
T        Si     0.437850000000     0.831250000000     0.844850000000     0          
O        O      0.075400000000     0.792100000000     0.624750000000     0          
O        O      0.028750000000     0.821000000000     0.669250000000     0          
O        O      0.081200000000     0.838750000000     0.703000000000     0          
T        Si     0.062150000000     0.831250000000     0.655150000000     0          
O        O      0.424600000000     0.707900000000     0.624750000000     0          
O        O      0.471250000000     0.679000000000     0.669250000000     0          
O        O      0.418800000000     0.661250000000     0.703000000000     0          
T        Si     0.437850000000     0.668750000000     0.655150000000     0          
O        O      0.674600000000     0.042100000000     0.124750000000     0          
O        O      0.721250000000     0.071000000000     0.169250000000     0          
O        O      0.686850000000     0.125000000000     0.125000000000     0          
O        O      0.668800000000     0.088750000000     0.203000000000     0          
O        O      0.625000000000     0.125000000000     0.000000000000     0          
O        O      0.631400000000     0.208100000000     0.000000000000     0          
O        O      0.750000000000     0.061950000000     0.250000000000     0          
O        O      0.750000000000     0.000000000000     0.313950000000     0          
O        O      0.658800000000     0.250000000000     0.202400000000     0          
O        O      0.625000000000     0.250000000000     0.125000000000     0          
T        Si     0.687850000000     0.081250000000     0.155150000000     0          
T        Si     0.648450000000     0.163200000000     0.000000000000     0          
T        Si     0.750000000000     0.050900000000     0.306350000000     0          
T        Si     0.658100000000     0.250000000000     0.144600000000     0          
T        Si     0.638900000000     0.250000000000     0.250000000000     0          
O        O      0.825400000000     0.457900000000     0.124750000000     0          
O        O      0.778750000000     0.429000000000     0.169250000000     0          
O        O      0.813150000000     0.375000000000     0.125000000000     0          
O        O      0.831200000000     0.411250000000     0.203000000000     0          
O        O      0.875000000000     0.375000000000     0.000000000000     0          
O        O      0.868600000000     0.291900000000     0.000000000000     0          
O        O      0.750000000000     0.438050000000     0.250000000000     0          
O        O      0.841200000000     0.250000000000     0.202400000000     0          
O        O      0.875000000000     0.250000000000     0.125000000000     0          
T        Si     0.812150000000     0.418750000000     0.155150000000     0          
T        Si     0.851550000000     0.336800000000     0.000000000000     0          
T        Si     0.750000000000     0.449100000000     0.306350000000     0          
T        Si     0.841900000000     0.250000000000     0.144600000000     0          
T        Si     0.861100000000     0.250000000000     0.250000000000     0          
O        O      0.674600000000     0.457900000000     0.375250000000     0          
O        O      0.721250000000     0.429000000000     0.330750000000     0          
O        O      0.686850000000     0.375000000000     0.375000000000     0          
O        O      0.668800000000     0.411250000000     0.297000000000     0          
O        O      0.625000000000     0.375000000000     0.000000000000     0          
O        O      0.631400000000     0.291900000000     0.000000000000     0          
O        O      0.750000000000     0.000000000000     0.186050000000     0          
O        O      0.658800000000     0.250000000000     0.297600000000     0          
O        O      0.625000000000     0.250000000000     0.375000000000     0          
T        Si     0.687850000000     0.418750000000     0.344850000000     0          
T        Si     0.648450000000     0.336800000000     0.000000000000     0          
T        Si     0.750000000000     0.449100000000     0.193650000000     0          
T        Si     0.658100000000     0.250000000000     0.355400000000     0          
O        O      0.825400000000     0.042100000000     0.375250000000     0          
O        O      0.778750000000     0.071000000000     0.330750000000     0          
O        O      0.813150000000     0.125000000000     0.375000000000     0          
O        O      0.831200000000     0.088750000000     0.297000000000     0          
O        O      0.875000000000     0.125000000000     0.000000000000     0          
O        O      0.868600000000     0.208100000000     0.000000000000     0          
O        O      0.841200000000     0.250000000000     0.297600000000     0          
O        O      0.875000000000     0.250000000000     0.375000000000     0          
T        Si     0.812150000000     0.081250000000     0.344850000000     0          
T        Si     0.851550000000     0.163200000000     0.000000000000     0          
T        Si     0.750000000000     0.050900000000     0.193650000000     0          
T        Si     0.841900000000     0.250000000000     0.355400000000     0          
O        O      0.825400000000     0.457900000000     0.375250000000     0          
O        O      0.778750000000     0.429000000000     0.330750000000     0          
O        O      0.813150000000     0.375000000000     0.375000000000     0          
O        O      0.831200000000     0.411250000000     0.297000000000     0          
T        Si     0.812150000000     0.418750000000     0.344850000000     0          
O        O      0.674600000000     0.042100000000     0.375250000000     0          
O        O      0.721250000000     0.071000000000     0.330750000000     0          
O        O      0.686850000000     0.125000000000     0.375000000000     0          
O        O      0.668800000000     0.088750000000     0.297000000000     0          
T        Si     0.687850000000     0.081250000000     0.344850000000     0          
O        O      0.825400000000     0.042100000000     0.124750000000     0          
O        O      0.778750000000     0.071000000000     0.169250000000     0          
O        O      0.813150000000     0.125000000000     0.125000000000     0          
O        O      0.831200000000     0.088750000000     0.203000000000     0          
T        Si     0.812150000000     0.081250000000     0.155150000000     0          
O        O      0.674600000000     0.457900000000     0.124750000000     0          
O        O      0.721250000000     0.429000000000     0.169250000000     0          
O        O      0.686850000000     0.375000000000     0.125000000000     0          
O        O      0.668800000000     0.411250000000     0.203000000000     0          
T        Si     0.687850000000     0.418750000000     0.155150000000     0          
O        O      0.674600000000     0.292100000000     0.374750000000     0          
O        O      0.721250000000     0.321000000000     0.419250000000     0          
O        O      0.668800000000     0.338750000000     0.453000000000     0          
O        O      0.625000000000     0.375000000000     0.250000000000     0          
O        O      0.631400000000     0.458100000000     0.250000000000     0          
O        O      0.750000000000     0.311950000000     0.000000000000     0          
O        O      0.750000000000     0.250000000000     0.063950000000     0          
O        O      0.658800000000     0.000000000000     0.452400000000     0          
O        O      0.625000000000     0.000000000000     0.375000000000     0          
T        Si     0.687850000000     0.331250000000     0.405150000000     0          
T        Si     0.648450000000     0.413200000000     0.250000000000     0          
T        Si     0.750000000000     0.300900000000     0.056350000000     0          
T        Si     0.658100000000     0.000000000000     0.394600000000     0          
T        Si     0.638900000000     0.000000000000     0.000000000000     0          
O        O      0.825400000000     0.207900000000     0.374750000000     0          
O        O      0.778750000000     0.179000000000     0.419250000000     0          
O        O      0.831200000000     0.161250000000     0.453000000000     0          
O        O      0.875000000000     0.125000000000     0.250000000000     0          
O        O      0.868600000000     0.041900000000     0.250000000000     0          
O        O      0.750000000000     0.188050000000     0.000000000000     0          
O        O      0.841200000000     0.000000000000     0.452400000000     0          
O        O      0.875000000000     0.000000000000     0.375000000000     0          
T        Si     0.812150000000     0.168750000000     0.405150000000     0          
T        Si     0.851550000000     0.086800000000     0.250000000000     0          
T        Si     0.750000000000     0.199100000000     0.056350000000     0          
T        Si     0.841900000000     0.000000000000     0.394600000000     0          
T        Si     0.861100000000     0.000000000000     0.000000000000     0          
O        O      0.674600000000     0.207900000000     0.125250000000     0          
O        O      0.721250000000     0.179000000000     0.080750000000     0          
O        O      0.668800000000     0.161250000000     0.047000000000     0          
O        O      0.625000000000     0.125000000000     0.250000000000     0          
O        O      0.631400000000     0.041900000000     0.250000000000     0          
O        O      0.750000000000     0.250000000000     0.436050000000     0          
O        O      0.658800000000     0.000000000000     0.047600000000     0          
O        O      0.625000000000     0.000000000000     0.125000000000     0          
T        Si     0.687850000000     0.168750000000     0.094850000000     0          
T        Si     0.648450000000     0.086800000000     0.250000000000     0          
T        Si     0.750000000000     0.199100000000     0.443650000000     0          
T        Si     0.658100000000     0.000000000000     0.105400000000     0          
O        O      0.825400000000     0.292100000000     0.125250000000     0          
O        O      0.778750000000     0.321000000000     0.080750000000     0          
O        O      0.831200000000     0.338750000000     0.047000000000     0          
O        O      0.875000000000     0.375000000000     0.250000000000     0          
O        O      0.868600000000     0.458100000000     0.250000000000     0          
O        O      0.841200000000     0.000000000000     0.047600000000     0          
O        O      0.875000000000     0.000000000000     0.125000000000     0          
T        Si     0.812150000000     0.331250000000     0.094850000000     0          
T        Si     0.851550000000     0.413200000000     0.250000000000     0          
T        Si     0.750000000000     0.300900000000     0.443650000000     0          
T        Si     0.841900000000     0.000000000000     0.105400000000     0          
O        O      0.825400000000     0.207900000000     0.125250000000     0          
O        O      0.778750000000     0.179000000000     0.080750000000     0          
O        O      0.831200000000     0.161250000000     0.047000000000     0          
T        Si     0.812150000000     0.168750000000     0.094850000000     0          
O        O      0.674600000000     0.292100000000     0.125250000000     0          
O        O      0.721250000000     0.321000000000     0.080750000000     0          
O        O      0.668800000000     0.338750000000     0.047000000000     0          
T        Si     0.687850000000     0.331250000000     0.094850000000     0          
O        O      0.825400000000     0.292100000000     0.374750000000     0          
O        O      0.778750000000     0.321000000000     0.419250000000     0          
O        O      0.831200000000     0.338750000000     0.453000000000     0          
T        Si     0.812150000000     0.331250000000     0.405150000000     0          
O        O      0.674600000000     0.207900000000     0.374750000000     0          
O        O      0.721250000000     0.179000000000     0.419250000000     0          
O        O      0.668800000000     0.161250000000     0.453000000000     0          
T        Si     0.687850000000     0.168750000000     0.405150000000     0          
O        O      0.924600000000     0.042100000000     0.374750000000     0          
O        O      0.971250000000     0.071000000000     0.419250000000     0          
O        O      0.936850000000     0.125000000000     0.375000000000     0          
O        O      0.918800000000     0.088750000000     0.453000000000     0          
O        O      0.881400000000     0.208100000000     0.250000000000     0          
O        O      0.500000000000     0.061950000000     0.000000000000     0          
O        O      0.500000000000     0.000000000000     0.063950000000     0          
O        O      0.908800000000     0.250000000000     0.452400000000     0          
T        Si     0.937850000000     0.081250000000     0.405150000000     0          
T        Si     0.898450000000     0.163200000000     0.250000000000     0          
T        Si     0.500000000000     0.050900000000     0.056350000000     0          
T        Si     0.908100000000     0.250000000000     0.394600000000     0          
T        Si     0.888900000000     0.250000000000     0.000000000000     0          
O        O      0.575400000000     0.457900000000     0.374750000000     0          
O        O      0.528750000000     0.429000000000     0.419250000000     0          
O        O      0.563150000000     0.375000000000     0.375000000000     0          
O        O      0.581200000000     0.411250000000     0.453000000000     0          
O        O      0.618600000000     0.291900000000     0.250000000000     0          
O        O      0.500000000000     0.438050000000     0.000000000000     0          
O        O      0.591200000000     0.250000000000     0.452400000000     0          
T        Si     0.562150000000     0.418750000000     0.405150000000     0          
T        Si     0.601550000000     0.336800000000     0.250000000000     0          
T        Si     0.500000000000     0.449100000000     0.056350000000     0          
T        Si     0.591900000000     0.250000000000     0.394600000000     0          
T        Si     0.611100000000     0.250000000000     0.000000000000     0          
O        O      0.924600000000     0.457900000000     0.125250000000     0          
O        O      0.971250000000     0.429000000000     0.080750000000     0          
O        O      0.936850000000     0.375000000000     0.125000000000     0          
O        O      0.918800000000     0.411250000000     0.047000000000     0          
O        O      0.881400000000     0.291900000000     0.250000000000     0          
O        O      0.500000000000     0.000000000000     0.436050000000     0          
O        O      0.908800000000     0.250000000000     0.047600000000     0          
T        Si     0.937850000000     0.418750000000     0.094850000000     0          
T        Si     0.898450000000     0.336800000000     0.250000000000     0          
T        Si     0.500000000000     0.449100000000     0.443650000000     0          
T        Si     0.908100000000     0.250000000000     0.105400000000     0          
O        O      0.575400000000     0.042100000000     0.125250000000     0          
O        O      0.528750000000     0.071000000000     0.080750000000     0          
O        O      0.563150000000     0.125000000000     0.125000000000     0          
O        O      0.581200000000     0.088750000000     0.047000000000     0          
O        O      0.618600000000     0.208100000000     0.250000000000     0          
O        O      0.591200000000     0.250000000000     0.047600000000     0          
T        Si     0.562150000000     0.081250000000     0.094850000000     0          
T        Si     0.601550000000     0.163200000000     0.250000000000     0          
T        Si     0.500000000000     0.050900000000     0.443650000000     0          
T        Si     0.591900000000     0.250000000000     0.105400000000     0          
O        O      0.575400000000     0.457900000000     0.125250000000     0          
O        O      0.528750000000     0.429000000000     0.080750000000     0          
O        O      0.563150000000     0.375000000000     0.125000000000     0          
O        O      0.581200000000     0.411250000000     0.047000000000     0          
T        Si     0.562150000000     0.418750000000     0.094850000000     0          
O        O      0.924600000000     0.042100000000     0.125250000000     0          
O        O      0.971250000000     0.071000000000     0.080750000000     0          
O        O      0.936850000000     0.125000000000     0.125000000000     0          
O        O      0.918800000000     0.088750000000     0.047000000000     0          
T        Si     0.937850000000     0.081250000000     0.094850000000     0          
O        O      0.575400000000     0.042100000000     0.374750000000     0          
O        O      0.528750000000     0.071000000000     0.419250000000     0          
O        O      0.563150000000     0.125000000000     0.375000000000     0          
O        O      0.581200000000     0.088750000000     0.453000000000     0          
T        Si     0.562150000000     0.081250000000     0.405150000000     0          
O        O      0.924600000000     0.457900000000     0.374750000000     0          
O        O      0.971250000000     0.429000000000     0.419250000000     0          
O        O      0.936850000000     0.375000000000     0.375000000000     0          
O        O      0.918800000000     0.411250000000     0.453000000000     0          
T        Si     0.937850000000     0.418750000000     0.405150000000     0          
O        O      0.924600000000     0.292100000000     0.124750000000     0          
O        O      0.971250000000     0.321000000000     0.169250000000     0          
O        O      0.918800000000     0.338750000000     0.203000000000     0          
O        O      0.881400000000     0.458100000000     0.000000000000     0          
O        O      0.500000000000     0.311950000000     0.250000000000     0          
O        O      0.500000000000     0.250000000000     0.313950000000     0          
O        O      0.908800000000     0.000000000000     0.202400000000     0          
T        Si     0.937850000000     0.331250000000     0.155150000000     0          
T        Si     0.898450000000     0.413200000000     0.000000000000     0          
T        Si     0.500000000000     0.300900000000     0.306350000000     0          
T        Si     0.908100000000     0.000000000000     0.144600000000     0          
T        Si     0.888900000000     0.000000000000     0.250000000000     0          
O        O      0.575400000000     0.207900000000     0.124750000000     0          
O        O      0.528750000000     0.179000000000     0.169250000000     0          
O        O      0.581200000000     0.161250000000     0.203000000000     0          
O        O      0.618600000000     0.041900000000     0.000000000000     0          
O        O      0.500000000000     0.188050000000     0.250000000000     0          
O        O      0.591200000000     0.000000000000     0.202400000000     0          
T        Si     0.562150000000     0.168750000000     0.155150000000     0          
T        Si     0.601550000000     0.086800000000     0.000000000000     0          
T        Si     0.500000000000     0.199100000000     0.306350000000     0          
T        Si     0.591900000000     0.000000000000     0.144600000000     0          
T        Si     0.611100000000     0.000000000000     0.250000000000     0          
O        O      0.924600000000     0.207900000000     0.375250000000     0          
O        O      0.971250000000     0.179000000000     0.330750000000     0          
O        O      0.918800000000     0.161250000000     0.297000000000     0          
O        O      0.881400000000     0.041900000000     0.000000000000     0          
O        O      0.500000000000     0.250000000000     0.186050000000     0          
O        O      0.908800000000     0.000000000000     0.297600000000     0          
T        Si     0.937850000000     0.168750000000     0.344850000000     0          
T        Si     0.898450000000     0.086800000000     0.000000000000     0          
T        Si     0.500000000000     0.199100000000     0.193650000000     0          
T        Si     0.908100000000     0.000000000000     0.355400000000     0          
O        O      0.575400000000     0.292100000000     0.375250000000     0          
O        O      0.528750000000     0.321000000000     0.330750000000     0          
O        O      0.581200000000     0.338750000000     0.297000000000     0          
O        O      0.618600000000     0.458100000000     0.000000000000     0          
O        O      0.591200000000     0.000000000000     0.297600000000     0          
T        Si     0.562150000000     0.331250000000     0.344850000000     0          
T        Si     0.601550000000     0.413200000000     0.000000000000     0          
T        Si     0.500000000000     0.300900000000     0.193650000000     0          
T        Si     0.591900000000     0.000000000000     0.355400000000     0          
O        O      0.575400000000     0.207900000000     0.375250000000     0          
O        O      0.528750000000     0.179000000000     0.330750000000     0          
O        O      0.581200000000     0.161250000000     0.297000000000     0          
T        Si     0.562150000000     0.168750000000     0.344850000000     0          
O        O      0.924600000000     0.292100000000     0.375250000000     0          
O        O      0.971250000000     0.321000000000     0.330750000000     0          
O        O      0.918800000000     0.338750000000     0.297000000000     0          
T        Si     0.937850000000     0.331250000000     0.344850000000     0          
O        O      0.575400000000     0.292100000000     0.124750000000     0          
O        O      0.528750000000     0.321000000000     0.169250000000     0          
O        O      0.581200000000     0.338750000000     0.203000000000     0          
T        Si     0.562150000000     0.331250000000     0.155150000000     0          
O        O      0.924600000000     0.207900000000     0.124750000000     0          
O        O      0.971250000000     0.179000000000     0.169250000000     0          
O        O      0.918800000000     0.161250000000     0.203000000000     0          
T        Si     0.937850000000     0.168750000000     0.155150000000     0          
O        O      0.674600000000     0.042100000000     0.624750000000     0          
O        O      0.721250000000     0.071000000000     0.669250000000     0          
O        O      0.686850000000     0.125000000000     0.625000000000     0          
O        O      0.668800000000     0.088750000000     0.703000000000     0          
O        O      0.625000000000     0.125000000000     0.500000000000     0          
O        O      0.631400000000     0.208100000000     0.500000000000     0          
O        O      0.750000000000     0.061950000000     0.750000000000     0          
O        O      0.750000000000     0.000000000000     0.813950000000     0          
O        O      0.658800000000     0.250000000000     0.702400000000     0          
O        O      0.625000000000     0.250000000000     0.625000000000     0          
T        Si     0.687850000000     0.081250000000     0.655150000000     0          
T        Si     0.648450000000     0.163200000000     0.500000000000     0          
T        Si     0.750000000000     0.050900000000     0.806350000000     0          
T        Si     0.658100000000     0.250000000000     0.644600000000     0          
T        Si     0.638900000000     0.250000000000     0.750000000000     0          
O        O      0.825400000000     0.457900000000     0.624750000000     0          
O        O      0.778750000000     0.429000000000     0.669250000000     0          
O        O      0.813150000000     0.375000000000     0.625000000000     0          
O        O      0.831200000000     0.411250000000     0.703000000000     0          
O        O      0.875000000000     0.375000000000     0.500000000000     0          
O        O      0.868600000000     0.291900000000     0.500000000000     0          
O        O      0.750000000000     0.438050000000     0.750000000000     0          
O        O      0.841200000000     0.250000000000     0.702400000000     0          
O        O      0.875000000000     0.250000000000     0.625000000000     0          
T        Si     0.812150000000     0.418750000000     0.655150000000     0          
T        Si     0.851550000000     0.336800000000     0.500000000000     0          
T        Si     0.750000000000     0.449100000000     0.806350000000     0          
T        Si     0.841900000000     0.250000000000     0.644600000000     0          
T        Si     0.861100000000     0.250000000000     0.750000000000     0          
O        O      0.674600000000     0.457900000000     0.875250000000     0          
O        O      0.721250000000     0.429000000000     0.830750000000     0          
O        O      0.686850000000     0.375000000000     0.875000000000     0          
O        O      0.668800000000     0.411250000000     0.797000000000     0          
O        O      0.625000000000     0.375000000000     0.500000000000     0          
O        O      0.631400000000     0.291900000000     0.500000000000     0          
O        O      0.750000000000     0.000000000000     0.686050000000     0          
O        O      0.658800000000     0.250000000000     0.797600000000     0          
O        O      0.625000000000     0.250000000000     0.875000000000     0          
T        Si     0.687850000000     0.418750000000     0.844850000000     0          
T        Si     0.648450000000     0.336800000000     0.500000000000     0          
T        Si     0.750000000000     0.449100000000     0.693650000000     0          
T        Si     0.658100000000     0.250000000000     0.855400000000     0          
O        O      0.825400000000     0.042100000000     0.875250000000     0          
O        O      0.778750000000     0.071000000000     0.830750000000     0          
O        O      0.813150000000     0.125000000000     0.875000000000     0          
O        O      0.831200000000     0.088750000000     0.797000000000     0          
O        O      0.875000000000     0.125000000000     0.500000000000     0          
O        O      0.868600000000     0.208100000000     0.500000000000     0          
O        O      0.841200000000     0.250000000000     0.797600000000     0          
O        O      0.875000000000     0.250000000000     0.875000000000     0          
T        Si     0.812150000000     0.081250000000     0.844850000000     0          
T        Si     0.851550000000     0.163200000000     0.500000000000     0          
T        Si     0.750000000000     0.050900000000     0.693650000000     0          
T        Si     0.841900000000     0.250000000000     0.855400000000     0          
O        O      0.825400000000     0.457900000000     0.875250000000     0          
O        O      0.778750000000     0.429000000000     0.830750000000     0          
O        O      0.813150000000     0.375000000000     0.875000000000     0          
O        O      0.831200000000     0.411250000000     0.797000000000     0          
T        Si     0.812150000000     0.418750000000     0.844850000000     0          
O        O      0.674600000000     0.042100000000     0.875250000000     0          
O        O      0.721250000000     0.071000000000     0.830750000000     0          
O        O      0.686850000000     0.125000000000     0.875000000000     0          
O        O      0.668800000000     0.088750000000     0.797000000000     0          
T        Si     0.687850000000     0.081250000000     0.844850000000     0          
O        O      0.825400000000     0.042100000000     0.624750000000     0          
O        O      0.778750000000     0.071000000000     0.669250000000     0          
O        O      0.813150000000     0.125000000000     0.625000000000     0          
O        O      0.831200000000     0.088750000000     0.703000000000     0          
T        Si     0.812150000000     0.081250000000     0.655150000000     0          
O        O      0.674600000000     0.457900000000     0.624750000000     0          
O        O      0.721250000000     0.429000000000     0.669250000000     0          
O        O      0.686850000000     0.375000000000     0.625000000000     0          
O        O      0.668800000000     0.411250000000     0.703000000000     0          
T        Si     0.687850000000     0.418750000000     0.655150000000     0          
O        O      0.674600000000     0.292100000000     0.874750000000     0          
O        O      0.721250000000     0.321000000000     0.919250000000     0          
O        O      0.668800000000     0.338750000000     0.953000000000     0          
O        O      0.625000000000     0.375000000000     0.750000000000     0          
O        O      0.631400000000     0.458100000000     0.750000000000     0          
O        O      0.750000000000     0.311950000000     0.500000000000     0          
O        O      0.750000000000     0.250000000000     0.563950000000     0          
O        O      0.658800000000     0.000000000000     0.952400000000     0          
O        O      0.625000000000     0.000000000000     0.875000000000     0          
T        Si     0.687850000000     0.331250000000     0.905150000000     0          
T        Si     0.648450000000     0.413200000000     0.750000000000     0          
T        Si     0.750000000000     0.300900000000     0.556350000000     0          
T        Si     0.658100000000     0.000000000000     0.894600000000     0          
T        Si     0.638900000000     0.000000000000     0.500000000000     0          
O        O      0.825400000000     0.207900000000     0.874750000000     0          
O        O      0.778750000000     0.179000000000     0.919250000000     0          
O        O      0.831200000000     0.161250000000     0.953000000000     0          
O        O      0.875000000000     0.125000000000     0.750000000000     0          
O        O      0.868600000000     0.041900000000     0.750000000000     0          
O        O      0.750000000000     0.188050000000     0.500000000000     0          
O        O      0.841200000000     0.000000000000     0.952400000000     0          
O        O      0.875000000000     0.000000000000     0.875000000000     0          
T        Si     0.812150000000     0.168750000000     0.905150000000     0          
T        Si     0.851550000000     0.086800000000     0.750000000000     0          
T        Si     0.750000000000     0.199100000000     0.556350000000     0          
T        Si     0.841900000000     0.000000000000     0.894600000000     0          
T        Si     0.861100000000     0.000000000000     0.500000000000     0          
O        O      0.674600000000     0.207900000000     0.625250000000     0          
O        O      0.721250000000     0.179000000000     0.580750000000     0          
O        O      0.668800000000     0.161250000000     0.547000000000     0          
O        O      0.625000000000     0.125000000000     0.750000000000     0          
O        O      0.631400000000     0.041900000000     0.750000000000     0          
O        O      0.750000000000     0.250000000000     0.936050000000     0          
O        O      0.658800000000     0.000000000000     0.547600000000     0          
O        O      0.625000000000     0.000000000000     0.625000000000     0          
T        Si     0.687850000000     0.168750000000     0.594850000000     0          
T        Si     0.648450000000     0.086800000000     0.750000000000     0          
T        Si     0.750000000000     0.199100000000     0.943650000000     0          
T        Si     0.658100000000     0.000000000000     0.605400000000     0          
O        O      0.825400000000     0.292100000000     0.625250000000     0          
O        O      0.778750000000     0.321000000000     0.580750000000     0          
O        O      0.831200000000     0.338750000000     0.547000000000     0          
O        O      0.875000000000     0.375000000000     0.750000000000     0          
O        O      0.868600000000     0.458100000000     0.750000000000     0          
O        O      0.841200000000     0.000000000000     0.547600000000     0          
O        O      0.875000000000     0.000000000000     0.625000000000     0          
T        Si     0.812150000000     0.331250000000     0.594850000000     0          
T        Si     0.851550000000     0.413200000000     0.750000000000     0          
T        Si     0.750000000000     0.300900000000     0.943650000000     0          
T        Si     0.841900000000     0.000000000000     0.605400000000     0          
O        O      0.825400000000     0.207900000000     0.625250000000     0          
O        O      0.778750000000     0.179000000000     0.580750000000     0          
O        O      0.831200000000     0.161250000000     0.547000000000     0          
T        Si     0.812150000000     0.168750000000     0.594850000000     0          
O        O      0.674600000000     0.292100000000     0.625250000000     0          
O        O      0.721250000000     0.321000000000     0.580750000000     0          
O        O      0.668800000000     0.338750000000     0.547000000000     0          
T        Si     0.687850000000     0.331250000000     0.594850000000     0          
O        O      0.825400000000     0.292100000000     0.874750000000     0          
O        O      0.778750000000     0.321000000000     0.919250000000     0          
O        O      0.831200000000     0.338750000000     0.953000000000     0          
T        Si     0.812150000000     0.331250000000     0.905150000000     0          
O        O      0.674600000000     0.207900000000     0.874750000000     0          
O        O      0.721250000000     0.179000000000     0.919250000000     0          
O        O      0.668800000000     0.161250000000     0.953000000000     0          
T        Si     0.687850000000     0.168750000000     0.905150000000     0          
O        O      0.924600000000     0.042100000000     0.874750000000     0          
O        O      0.971250000000     0.071000000000     0.919250000000     0          
O        O      0.936850000000     0.125000000000     0.875000000000     0          
O        O      0.918800000000     0.088750000000     0.953000000000     0          
O        O      0.881400000000     0.208100000000     0.750000000000     0          
O        O      0.500000000000     0.061950000000     0.500000000000     0          
O        O      0.500000000000     0.000000000000     0.563950000000     0          
O        O      0.908800000000     0.250000000000     0.952400000000     0          
T        Si     0.937850000000     0.081250000000     0.905150000000     0          
T        Si     0.898450000000     0.163200000000     0.750000000000     0          
T        Si     0.500000000000     0.050900000000     0.556350000000     0          
T        Si     0.908100000000     0.250000000000     0.894600000000     0          
T        Si     0.888900000000     0.250000000000     0.500000000000     0          
O        O      0.575400000000     0.457900000000     0.874750000000     0          
O        O      0.528750000000     0.429000000000     0.919250000000     0          
O        O      0.563150000000     0.375000000000     0.875000000000     0          
O        O      0.581200000000     0.411250000000     0.953000000000     0          
O        O      0.618600000000     0.291900000000     0.750000000000     0          
O        O      0.500000000000     0.438050000000     0.500000000000     0          
O        O      0.591200000000     0.250000000000     0.952400000000     0          
T        Si     0.562150000000     0.418750000000     0.905150000000     0          
T        Si     0.601550000000     0.336800000000     0.750000000000     0          
T        Si     0.500000000000     0.449100000000     0.556350000000     0          
T        Si     0.591900000000     0.250000000000     0.894600000000     0          
T        Si     0.611100000000     0.250000000000     0.500000000000     0          
O        O      0.924600000000     0.457900000000     0.625250000000     0          
O        O      0.971250000000     0.429000000000     0.580750000000     0          
O        O      0.936850000000     0.375000000000     0.625000000000     0          
O        O      0.918800000000     0.411250000000     0.547000000000     0          
O        O      0.881400000000     0.291900000000     0.750000000000     0          
O        O      0.500000000000     0.000000000000     0.936050000000     0          
O        O      0.908800000000     0.250000000000     0.547600000000     0          
T        Si     0.937850000000     0.418750000000     0.594850000000     0          
T        Si     0.898450000000     0.336800000000     0.750000000000     0          
T        Si     0.500000000000     0.449100000000     0.943650000000     0          
T        Si     0.908100000000     0.250000000000     0.605400000000     0          
O        O      0.575400000000     0.042100000000     0.625250000000     0          
O        O      0.528750000000     0.071000000000     0.580750000000     0          
O        O      0.563150000000     0.125000000000     0.625000000000     0          
O        O      0.581200000000     0.088750000000     0.547000000000     0          
O        O      0.618600000000     0.208100000000     0.750000000000     0          
O        O      0.591200000000     0.250000000000     0.547600000000     0          
T        Si     0.562150000000     0.081250000000     0.594850000000     0          
T        Si     0.601550000000     0.163200000000     0.750000000000     0          
T        Si     0.500000000000     0.050900000000     0.943650000000     0          
T        Si     0.591900000000     0.250000000000     0.605400000000     0          
O        O      0.575400000000     0.457900000000     0.625250000000     0          
O        O      0.528750000000     0.429000000000     0.580750000000     0          
O        O      0.563150000000     0.375000000000     0.625000000000     0          
O        O      0.581200000000     0.411250000000     0.547000000000     0          
T        Si     0.562150000000     0.418750000000     0.594850000000     0          
O        O      0.924600000000     0.042100000000     0.625250000000     0          
O        O      0.971250000000     0.071000000000     0.580750000000     0          
O        O      0.936850000000     0.125000000000     0.625000000000     0          
O        O      0.918800000000     0.088750000000     0.547000000000     0          
T        Si     0.937850000000     0.081250000000     0.594850000000     0          
O        O      0.575400000000     0.042100000000     0.874750000000     0          
O        O      0.528750000000     0.071000000000     0.919250000000     0          
O        O      0.563150000000     0.125000000000     0.875000000000     0          
O        O      0.581200000000     0.088750000000     0.953000000000     0          
T        Si     0.562150000000     0.081250000000     0.905150000000     0          
O        O      0.924600000000     0.457900000000     0.874750000000     0          
O        O      0.971250000000     0.429000000000     0.919250000000     0          
O        O      0.936850000000     0.375000000000     0.875000000000     0          
O        O      0.918800000000     0.411250000000     0.953000000000     0          
T        Si     0.937850000000     0.418750000000     0.905150000000     0          
O        O      0.924600000000     0.292100000000     0.624750000000     0          
O        O      0.971250000000     0.321000000000     0.669250000000     0          
O        O      0.918800000000     0.338750000000     0.703000000000     0          
O        O      0.881400000000     0.458100000000     0.500000000000     0          
O        O      0.500000000000     0.311950000000     0.750000000000     0          
O        O      0.500000000000     0.250000000000     0.813950000000     0          
O        O      0.908800000000     0.000000000000     0.702400000000     0          
T        Si     0.937850000000     0.331250000000     0.655150000000     0          
T        Si     0.898450000000     0.413200000000     0.500000000000     0          
T        Si     0.500000000000     0.300900000000     0.806350000000     0          
T        Si     0.908100000000     0.000000000000     0.644600000000     0          
T        Si     0.888900000000     0.000000000000     0.750000000000     0          
O        O      0.575400000000     0.207900000000     0.624750000000     0          
O        O      0.528750000000     0.179000000000     0.669250000000     0          
O        O      0.581200000000     0.161250000000     0.703000000000     0          
O        O      0.618600000000     0.041900000000     0.500000000000     0          
O        O      0.500000000000     0.188050000000     0.750000000000     0          
O        O      0.591200000000     0.000000000000     0.702400000000     0          
T        Si     0.562150000000     0.168750000000     0.655150000000     0          
T        Si     0.601550000000     0.086800000000     0.500000000000     0          
T        Si     0.500000000000     0.199100000000     0.806350000000     0          
T        Si     0.591900000000     0.000000000000     0.644600000000     0          
T        Si     0.611100000000     0.000000000000     0.750000000000     0          
O        O      0.924600000000     0.207900000000     0.875250000000     0          
O        O      0.971250000000     0.179000000000     0.830750000000     0          
O        O      0.918800000000     0.161250000000     0.797000000000     0          
O        O      0.881400000000     0.041900000000     0.500000000000     0          
O        O      0.500000000000     0.250000000000     0.686050000000     0          
O        O      0.908800000000     0.000000000000     0.797600000000     0          
T        Si     0.937850000000     0.168750000000     0.844850000000     0          
T        Si     0.898450000000     0.086800000000     0.500000000000     0          
T        Si     0.500000000000     0.199100000000     0.693650000000     0          
T        Si     0.908100000000     0.000000000000     0.855400000000     0          
O        O      0.575400000000     0.292100000000     0.875250000000     0          
O        O      0.528750000000     0.321000000000     0.830750000000     0          
O        O      0.581200000000     0.338750000000     0.797000000000     0          
O        O      0.618600000000     0.458100000000     0.500000000000     0          
O        O      0.591200000000     0.000000000000     0.797600000000     0          
T        Si     0.562150000000     0.331250000000     0.844850000000     0          
T        Si     0.601550000000     0.413200000000     0.500000000000     0          
T        Si     0.500000000000     0.300900000000     0.693650000000     0          
T        Si     0.591900000000     0.000000000000     0.855400000000     0          
O        O      0.575400000000     0.207900000000     0.875250000000     0          
O        O      0.528750000000     0.179000000000     0.830750000000     0          
O        O      0.581200000000     0.161250000000     0.797000000000     0          
T        Si     0.562150000000     0.168750000000     0.844850000000     0          
O        O      0.924600000000     0.292100000000     0.875250000000     0          
O        O      0.971250000000     0.321000000000     0.830750000000     0          
O        O      0.918800000000     0.338750000000     0.797000000000     0          
T        Si     0.937850000000     0.331250000000     0.844850000000     0          
O        O      0.575400000000     0.292100000000     0.624750000000     0          
O        O      0.528750000000     0.321000000000     0.669250000000     0          
O        O      0.581200000000     0.338750000000     0.703000000000     0          
T        Si     0.562150000000     0.331250000000     0.655150000000     0          
O        O      0.924600000000     0.207900000000     0.624750000000     0          
O        O      0.971250000000     0.179000000000     0.669250000000     0          
O        O      0.918800000000     0.161250000000     0.703000000000     0          
T        Si     0.937850000000     0.168750000000     0.655150000000     0          
O        O      0.674600000000     0.542100000000     0.124750000000     0          
O        O      0.721250000000     0.571000000000     0.169250000000     0          
O        O      0.686850000000     0.625000000000     0.125000000000     0          
O        O      0.668800000000     0.588750000000     0.203000000000     0          
O        O      0.625000000000     0.625000000000     0.000000000000     0          
O        O      0.631400000000     0.708100000000     0.000000000000     0          
O        O      0.750000000000     0.561950000000     0.250000000000     0          
O        O      0.750000000000     0.500000000000     0.313950000000     0          
O        O      0.658800000000     0.750000000000     0.202400000000     0          
O        O      0.625000000000     0.750000000000     0.125000000000     0          
T        Si     0.687850000000     0.581250000000     0.155150000000     0          
T        Si     0.648450000000     0.663200000000     0.000000000000     0          
T        Si     0.750000000000     0.550900000000     0.306350000000     0          
T        Si     0.658100000000     0.750000000000     0.144600000000     0          
T        Si     0.638900000000     0.750000000000     0.250000000000     0          
O        O      0.825400000000     0.957900000000     0.124750000000     0          
O        O      0.778750000000     0.929000000000     0.169250000000     0          
O        O      0.813150000000     0.875000000000     0.125000000000     0          
O        O      0.831200000000     0.911250000000     0.203000000000     0          
O        O      0.875000000000     0.875000000000     0.000000000000     0          
O        O      0.868600000000     0.791900000000     0.000000000000     0          
O        O      0.750000000000     0.938050000000     0.250000000000     0          
O        O      0.841200000000     0.750000000000     0.202400000000     0          
O        O      0.875000000000     0.750000000000     0.125000000000     0          
T        Si     0.812150000000     0.918750000000     0.155150000000     0          
T        Si     0.851550000000     0.836800000000     0.000000000000     0          
T        Si     0.750000000000     0.949100000000     0.306350000000     0          
T        Si     0.841900000000     0.750000000000     0.144600000000     0          
T        Si     0.861100000000     0.750000000000     0.250000000000     0          
O        O      0.674600000000     0.957900000000     0.375250000000     0          
O        O      0.721250000000     0.929000000000     0.330750000000     0          
O        O      0.686850000000     0.875000000000     0.375000000000     0          
O        O      0.668800000000     0.911250000000     0.297000000000     0          
O        O      0.625000000000     0.875000000000     0.000000000000     0          
O        O      0.631400000000     0.791900000000     0.000000000000     0          
O        O      0.750000000000     0.500000000000     0.186050000000     0          
O        O      0.658800000000     0.750000000000     0.297600000000     0          
O        O      0.625000000000     0.750000000000     0.375000000000     0          
T        Si     0.687850000000     0.918750000000     0.344850000000     0          
T        Si     0.648450000000     0.836800000000     0.000000000000     0          
T        Si     0.750000000000     0.949100000000     0.193650000000     0          
T        Si     0.658100000000     0.750000000000     0.355400000000     0          
O        O      0.825400000000     0.542100000000     0.375250000000     0          
O        O      0.778750000000     0.571000000000     0.330750000000     0          
O        O      0.813150000000     0.625000000000     0.375000000000     0          
O        O      0.831200000000     0.588750000000     0.297000000000     0          
O        O      0.875000000000     0.625000000000     0.000000000000     0          
O        O      0.868600000000     0.708100000000     0.000000000000     0          
O        O      0.841200000000     0.750000000000     0.297600000000     0          
O        O      0.875000000000     0.750000000000     0.375000000000     0          
T        Si     0.812150000000     0.581250000000     0.344850000000     0          
T        Si     0.851550000000     0.663200000000     0.000000000000     0          
T        Si     0.750000000000     0.550900000000     0.193650000000     0          
T        Si     0.841900000000     0.750000000000     0.355400000000     0          
O        O      0.825400000000     0.957900000000     0.375250000000     0          
O        O      0.778750000000     0.929000000000     0.330750000000     0          
O        O      0.813150000000     0.875000000000     0.375000000000     0          
O        O      0.831200000000     0.911250000000     0.297000000000     0          
T        Si     0.812150000000     0.918750000000     0.344850000000     0          
O        O      0.674600000000     0.542100000000     0.375250000000     0          
O        O      0.721250000000     0.571000000000     0.330750000000     0          
O        O      0.686850000000     0.625000000000     0.375000000000     0          
O        O      0.668800000000     0.588750000000     0.297000000000     0          
T        Si     0.687850000000     0.581250000000     0.344850000000     0          
O        O      0.825400000000     0.542100000000     0.124750000000     0          
O        O      0.778750000000     0.571000000000     0.169250000000     0          
O        O      0.813150000000     0.625000000000     0.125000000000     0          
O        O      0.831200000000     0.588750000000     0.203000000000     0          
T        Si     0.812150000000     0.581250000000     0.155150000000     0          
O        O      0.674600000000     0.957900000000     0.124750000000     0          
O        O      0.721250000000     0.929000000000     0.169250000000     0          
O        O      0.686850000000     0.875000000000     0.125000000000     0          
O        O      0.668800000000     0.911250000000     0.203000000000     0          
T        Si     0.687850000000     0.918750000000     0.155150000000     0          
O        O      0.674600000000     0.792100000000     0.374750000000     0          
O        O      0.721250000000     0.821000000000     0.419250000000     0          
O        O      0.668800000000     0.838750000000     0.453000000000     0          
O        O      0.625000000000     0.875000000000     0.250000000000     0          
O        O      0.631400000000     0.958100000000     0.250000000000     0          
O        O      0.750000000000     0.811950000000     0.000000000000     0          
O        O      0.750000000000     0.750000000000     0.063950000000     0          
O        O      0.658800000000     0.500000000000     0.452400000000     0          
O        O      0.625000000000     0.500000000000     0.375000000000     0          
T        Si     0.687850000000     0.831250000000     0.405150000000     0          
T        Si     0.648450000000     0.913200000000     0.250000000000     0          
T        Si     0.750000000000     0.800900000000     0.056350000000     0          
T        Si     0.658100000000     0.500000000000     0.394600000000     0          
T        Si     0.638900000000     0.500000000000     0.000000000000     0          
O        O      0.825400000000     0.707900000000     0.374750000000     0          
O        O      0.778750000000     0.679000000000     0.419250000000     0          
O        O      0.831200000000     0.661250000000     0.453000000000     0          
O        O      0.875000000000     0.625000000000     0.250000000000     0          
O        O      0.868600000000     0.541900000000     0.250000000000     0          
O        O      0.750000000000     0.688050000000     0.000000000000     0          
O        O      0.841200000000     0.500000000000     0.452400000000     0          
O        O      0.875000000000     0.500000000000     0.375000000000     0          
T        Si     0.812150000000     0.668750000000     0.405150000000     0          
T        Si     0.851550000000     0.586800000000     0.250000000000     0          
T        Si     0.750000000000     0.699100000000     0.056350000000     0          
T        Si     0.841900000000     0.500000000000     0.394600000000     0          
T        Si     0.861100000000     0.500000000000     0.000000000000     0          
O        O      0.674600000000     0.707900000000     0.125250000000     0          
O        O      0.721250000000     0.679000000000     0.080750000000     0          
O        O      0.668800000000     0.661250000000     0.047000000000     0          
O        O      0.625000000000     0.625000000000     0.250000000000     0          
O        O      0.631400000000     0.541900000000     0.250000000000     0          
O        O      0.750000000000     0.750000000000     0.436050000000     0          
O        O      0.658800000000     0.500000000000     0.047600000000     0          
O        O      0.625000000000     0.500000000000     0.125000000000     0          
T        Si     0.687850000000     0.668750000000     0.094850000000     0          
T        Si     0.648450000000     0.586800000000     0.250000000000     0          
T        Si     0.750000000000     0.699100000000     0.443650000000     0          
T        Si     0.658100000000     0.500000000000     0.105400000000     0          
O        O      0.825400000000     0.792100000000     0.125250000000     0          
O        O      0.778750000000     0.821000000000     0.080750000000     0          
O        O      0.831200000000     0.838750000000     0.047000000000     0          
O        O      0.875000000000     0.875000000000     0.250000000000     0          
O        O      0.868600000000     0.958100000000     0.250000000000     0          
O        O      0.841200000000     0.500000000000     0.047600000000     0          
O        O      0.875000000000     0.500000000000     0.125000000000     0          
T        Si     0.812150000000     0.831250000000     0.094850000000     0          
T        Si     0.851550000000     0.913200000000     0.250000000000     0          
T        Si     0.750000000000     0.800900000000     0.443650000000     0          
T        Si     0.841900000000     0.500000000000     0.105400000000     0          
O        O      0.825400000000     0.707900000000     0.125250000000     0          
O        O      0.778750000000     0.679000000000     0.080750000000     0          
O        O      0.831200000000     0.661250000000     0.047000000000     0          
T        Si     0.812150000000     0.668750000000     0.094850000000     0          
O        O      0.674600000000     0.792100000000     0.125250000000     0          
O        O      0.721250000000     0.821000000000     0.080750000000     0          
O        O      0.668800000000     0.838750000000     0.047000000000     0          
T        Si     0.687850000000     0.831250000000     0.094850000000     0          
O        O      0.825400000000     0.792100000000     0.374750000000     0          
O        O      0.778750000000     0.821000000000     0.419250000000     0          
O        O      0.831200000000     0.838750000000     0.453000000000     0          
T        Si     0.812150000000     0.831250000000     0.405150000000     0          
O        O      0.674600000000     0.707900000000     0.374750000000     0          
O        O      0.721250000000     0.679000000000     0.419250000000     0          
O        O      0.668800000000     0.661250000000     0.453000000000     0          
T        Si     0.687850000000     0.668750000000     0.405150000000     0          
O        O      0.924600000000     0.542100000000     0.374750000000     0          
O        O      0.971250000000     0.571000000000     0.419250000000     0          
O        O      0.936850000000     0.625000000000     0.375000000000     0          
O        O      0.918800000000     0.588750000000     0.453000000000     0          
O        O      0.881400000000     0.708100000000     0.250000000000     0          
O        O      0.500000000000     0.561950000000     0.000000000000     0          
O        O      0.500000000000     0.500000000000     0.063950000000     0          
O        O      0.908800000000     0.750000000000     0.452400000000     0          
T        Si     0.937850000000     0.581250000000     0.405150000000     0          
T        Si     0.898450000000     0.663200000000     0.250000000000     0          
T        Si     0.500000000000     0.550900000000     0.056350000000     0          
T        Si     0.908100000000     0.750000000000     0.394600000000     0          
T        Si     0.888900000000     0.750000000000     0.000000000000     0          
O        O      0.575400000000     0.957900000000     0.374750000000     0          
O        O      0.528750000000     0.929000000000     0.419250000000     0          
O        O      0.563150000000     0.875000000000     0.375000000000     0          
O        O      0.581200000000     0.911250000000     0.453000000000     0          
O        O      0.618600000000     0.791900000000     0.250000000000     0          
O        O      0.500000000000     0.938050000000     0.000000000000     0          
O        O      0.591200000000     0.750000000000     0.452400000000     0          
T        Si     0.562150000000     0.918750000000     0.405150000000     0          
T        Si     0.601550000000     0.836800000000     0.250000000000     0          
T        Si     0.500000000000     0.949100000000     0.056350000000     0          
T        Si     0.591900000000     0.750000000000     0.394600000000     0          
T        Si     0.611100000000     0.750000000000     0.000000000000     0          
O        O      0.924600000000     0.957900000000     0.125250000000     0          
O        O      0.971250000000     0.929000000000     0.080750000000     0          
O        O      0.936850000000     0.875000000000     0.125000000000     0          
O        O      0.918800000000     0.911250000000     0.047000000000     0          
O        O      0.881400000000     0.791900000000     0.250000000000     0          
O        O      0.500000000000     0.500000000000     0.436050000000     0          
O        O      0.908800000000     0.750000000000     0.047600000000     0          
T        Si     0.937850000000     0.918750000000     0.094850000000     0          
T        Si     0.898450000000     0.836800000000     0.250000000000     0          
T        Si     0.500000000000     0.949100000000     0.443650000000     0          
T        Si     0.908100000000     0.750000000000     0.105400000000     0          
O        O      0.575400000000     0.542100000000     0.125250000000     0          
O        O      0.528750000000     0.571000000000     0.080750000000     0          
O        O      0.563150000000     0.625000000000     0.125000000000     0          
O        O      0.581200000000     0.588750000000     0.047000000000     0          
O        O      0.618600000000     0.708100000000     0.250000000000     0          
O        O      0.591200000000     0.750000000000     0.047600000000     0          
T        Si     0.562150000000     0.581250000000     0.094850000000     0          
T        Si     0.601550000000     0.663200000000     0.250000000000     0          
T        Si     0.500000000000     0.550900000000     0.443650000000     0          
T        Si     0.591900000000     0.750000000000     0.105400000000     0          
O        O      0.575400000000     0.957900000000     0.125250000000     0          
O        O      0.528750000000     0.929000000000     0.080750000000     0          
O        O      0.563150000000     0.875000000000     0.125000000000     0          
O        O      0.581200000000     0.911250000000     0.047000000000     0          
T        Si     0.562150000000     0.918750000000     0.094850000000     0          
O        O      0.924600000000     0.542100000000     0.125250000000     0          
O        O      0.971250000000     0.571000000000     0.080750000000     0          
O        O      0.936850000000     0.625000000000     0.125000000000     0          
O        O      0.918800000000     0.588750000000     0.047000000000     0          
T        Si     0.937850000000     0.581250000000     0.094850000000     0          
O        O      0.575400000000     0.542100000000     0.374750000000     0          
O        O      0.528750000000     0.571000000000     0.419250000000     0          
O        O      0.563150000000     0.625000000000     0.375000000000     0          
O        O      0.581200000000     0.588750000000     0.453000000000     0          
T        Si     0.562150000000     0.581250000000     0.405150000000     0          
O        O      0.924600000000     0.957900000000     0.374750000000     0          
O        O      0.971250000000     0.929000000000     0.419250000000     0          
O        O      0.936850000000     0.875000000000     0.375000000000     0          
O        O      0.918800000000     0.911250000000     0.453000000000     0          
T        Si     0.937850000000     0.918750000000     0.405150000000     0          
O        O      0.924600000000     0.792100000000     0.124750000000     0          
O        O      0.971250000000     0.821000000000     0.169250000000     0          
O        O      0.918800000000     0.838750000000     0.203000000000     0          
O        O      0.881400000000     0.958100000000     0.000000000000     0          
O        O      0.500000000000     0.811950000000     0.250000000000     0          
O        O      0.500000000000     0.750000000000     0.313950000000     0          
O        O      0.908800000000     0.500000000000     0.202400000000     0          
T        Si     0.937850000000     0.831250000000     0.155150000000     0          
T        Si     0.898450000000     0.913200000000     0.000000000000     0          
T        Si     0.500000000000     0.800900000000     0.306350000000     0          
T        Si     0.908100000000     0.500000000000     0.144600000000     0          
T        Si     0.888900000000     0.500000000000     0.250000000000     0          
O        O      0.575400000000     0.707900000000     0.124750000000     0          
O        O      0.528750000000     0.679000000000     0.169250000000     0          
O        O      0.581200000000     0.661250000000     0.203000000000     0          
O        O      0.618600000000     0.541900000000     0.000000000000     0          
O        O      0.500000000000     0.688050000000     0.250000000000     0          
O        O      0.591200000000     0.500000000000     0.202400000000     0          
T        Si     0.562150000000     0.668750000000     0.155150000000     0          
T        Si     0.601550000000     0.586800000000     0.000000000000     0          
T        Si     0.500000000000     0.699100000000     0.306350000000     0          
T        Si     0.591900000000     0.500000000000     0.144600000000     0          
T        Si     0.611100000000     0.500000000000     0.250000000000     0          
O        O      0.924600000000     0.707900000000     0.375250000000     0          
O        O      0.971250000000     0.679000000000     0.330750000000     0          
O        O      0.918800000000     0.661250000000     0.297000000000     0          
O        O      0.881400000000     0.541900000000     0.000000000000     0          
O        O      0.500000000000     0.750000000000     0.186050000000     0          
O        O      0.908800000000     0.500000000000     0.297600000000     0          
T        Si     0.937850000000     0.668750000000     0.344850000000     0          
T        Si     0.898450000000     0.586800000000     0.000000000000     0          
T        Si     0.500000000000     0.699100000000     0.193650000000     0          
T        Si     0.908100000000     0.500000000000     0.355400000000     0          
O        O      0.575400000000     0.792100000000     0.375250000000     0          
O        O      0.528750000000     0.821000000000     0.330750000000     0          
O        O      0.581200000000     0.838750000000     0.297000000000     0          
O        O      0.618600000000     0.958100000000     0.000000000000     0          
O        O      0.591200000000     0.500000000000     0.297600000000     0          
T        Si     0.562150000000     0.831250000000     0.344850000000     0          
T        Si     0.601550000000     0.913200000000     0.000000000000     0          
T        Si     0.500000000000     0.800900000000     0.193650000000     0          
T        Si     0.591900000000     0.500000000000     0.355400000000     0          
O        O      0.575400000000     0.707900000000     0.375250000000     0          
O        O      0.528750000000     0.679000000000     0.330750000000     0          
O        O      0.581200000000     0.661250000000     0.297000000000     0          
T        Si     0.562150000000     0.668750000000     0.344850000000     0          
O        O      0.924600000000     0.792100000000     0.375250000000     0          
O        O      0.971250000000     0.821000000000     0.330750000000     0          
O        O      0.918800000000     0.838750000000     0.297000000000     0          
T        Si     0.937850000000     0.831250000000     0.344850000000     0          
O        O      0.575400000000     0.792100000000     0.124750000000     0          
O        O      0.528750000000     0.821000000000     0.169250000000     0          
O        O      0.581200000000     0.838750000000     0.203000000000     0          
T        Si     0.562150000000     0.831250000000     0.155150000000     0          
O        O      0.924600000000     0.707900000000     0.124750000000     0          
O        O      0.971250000000     0.679000000000     0.169250000000     0          
O        O      0.918800000000     0.661250000000     0.203000000000     0          
T        Si     0.937850000000     0.668750000000     0.155150000000     0          
O        O      0.674600000000     0.542100000000     0.624750000000     0          
O        O      0.721250000000     0.571000000000     0.669250000000     0          
O        O      0.686850000000     0.625000000000     0.625000000000     0          
O        O      0.668800000000     0.588750000000     0.703000000000     0          
O        O      0.625000000000     0.625000000000     0.500000000000     0          
O        O      0.631400000000     0.708100000000     0.500000000000     0          
O        O      0.750000000000     0.561950000000     0.750000000000     0          
O        O      0.750000000000     0.500000000000     0.813950000000     0          
O        O      0.658800000000     0.750000000000     0.702400000000     0          
O        O      0.625000000000     0.750000000000     0.625000000000     0          
T        Si     0.687850000000     0.581250000000     0.655150000000     0          
T        Si     0.648450000000     0.663200000000     0.500000000000     0          
T        Si     0.750000000000     0.550900000000     0.806350000000     0          
T        Si     0.658100000000     0.750000000000     0.644600000000     0          
T        Si     0.638900000000     0.750000000000     0.750000000000     0          
O        O      0.825400000000     0.957900000000     0.624750000000     0          
O        O      0.778750000000     0.929000000000     0.669250000000     0          
O        O      0.813150000000     0.875000000000     0.625000000000     0          
O        O      0.831200000000     0.911250000000     0.703000000000     0          
O        O      0.875000000000     0.875000000000     0.500000000000     0          
O        O      0.868600000000     0.791900000000     0.500000000000     0          
O        O      0.750000000000     0.938050000000     0.750000000000     0          
O        O      0.841200000000     0.750000000000     0.702400000000     0          
O        O      0.875000000000     0.750000000000     0.625000000000     0          
T        Si     0.812150000000     0.918750000000     0.655150000000     0          
T        Si     0.851550000000     0.836800000000     0.500000000000     0          
T        Si     0.750000000000     0.949100000000     0.806350000000     0          
T        Si     0.841900000000     0.750000000000     0.644600000000     0          
T        Si     0.861100000000     0.750000000000     0.750000000000     0          
O        O      0.674600000000     0.957900000000     0.875250000000     0          
O        O      0.721250000000     0.929000000000     0.830750000000     0          
O        O      0.686850000000     0.875000000000     0.875000000000     0          
O        O      0.668800000000     0.911250000000     0.797000000000     0          
O        O      0.625000000000     0.875000000000     0.500000000000     0          
O        O      0.631400000000     0.791900000000     0.500000000000     0          
O        O      0.750000000000     0.500000000000     0.686050000000     0          
O        O      0.658800000000     0.750000000000     0.797600000000     0          
O        O      0.625000000000     0.750000000000     0.875000000000     0          
T        Si     0.687850000000     0.918750000000     0.844850000000     0          
T        Si     0.648450000000     0.836800000000     0.500000000000     0          
T        Si     0.750000000000     0.949100000000     0.693650000000     0          
T        Si     0.658100000000     0.750000000000     0.855400000000     0          
O        O      0.825400000000     0.542100000000     0.875250000000     0          
O        O      0.778750000000     0.571000000000     0.830750000000     0          
O        O      0.813150000000     0.625000000000     0.875000000000     0          
O        O      0.831200000000     0.588750000000     0.797000000000     0          
O        O      0.875000000000     0.625000000000     0.500000000000     0          
O        O      0.868600000000     0.708100000000     0.500000000000     0          
O        O      0.841200000000     0.750000000000     0.797600000000     0          
O        O      0.875000000000     0.750000000000     0.875000000000     0          
T        Si     0.812150000000     0.581250000000     0.844850000000     0          
T        Si     0.851550000000     0.663200000000     0.500000000000     0          
T        Si     0.750000000000     0.550900000000     0.693650000000     0          
T        Si     0.841900000000     0.750000000000     0.855400000000     0          
O        O      0.825400000000     0.957900000000     0.875250000000     0          
O        O      0.778750000000     0.929000000000     0.830750000000     0          
O        O      0.813150000000     0.875000000000     0.875000000000     0          
O        O      0.831200000000     0.911250000000     0.797000000000     0          
T        Si     0.812150000000     0.918750000000     0.844850000000     0          
O        O      0.674600000000     0.542100000000     0.875250000000     0          
O        O      0.721250000000     0.571000000000     0.830750000000     0          
O        O      0.686850000000     0.625000000000     0.875000000000     0          
O        O      0.668800000000     0.588750000000     0.797000000000     0          
T        Si     0.687850000000     0.581250000000     0.844850000000     0          
O        O      0.825400000000     0.542100000000     0.624750000000     0          
O        O      0.778750000000     0.571000000000     0.669250000000     0          
O        O      0.813150000000     0.625000000000     0.625000000000     0          
O        O      0.831200000000     0.588750000000     0.703000000000     0          
T        Si     0.812150000000     0.581250000000     0.655150000000     0          
O        O      0.674600000000     0.957900000000     0.624750000000     0          
O        O      0.721250000000     0.929000000000     0.669250000000     0          
O        O      0.686850000000     0.875000000000     0.625000000000     0          
O        O      0.668800000000     0.911250000000     0.703000000000     0          
T        Si     0.687850000000     0.918750000000     0.655150000000     0          
O        O      0.674600000000     0.792100000000     0.874750000000     0          
O        O      0.721250000000     0.821000000000     0.919250000000     0          
O        O      0.668800000000     0.838750000000     0.953000000000     0          
O        O      0.625000000000     0.875000000000     0.750000000000     0          
O        O      0.631400000000     0.958100000000     0.750000000000     0          
O        O      0.750000000000     0.811950000000     0.500000000000     0          
O        O      0.750000000000     0.750000000000     0.563950000000     0          
O        O      0.658800000000     0.500000000000     0.952400000000     0          
O        O      0.625000000000     0.500000000000     0.875000000000     0          
T        Si     0.687850000000     0.831250000000     0.905150000000     0          
T        Si     0.648450000000     0.913200000000     0.750000000000     0          
T        Si     0.750000000000     0.800900000000     0.556350000000     0          
T        Si     0.658100000000     0.500000000000     0.894600000000     0          
T        Si     0.638900000000     0.500000000000     0.500000000000     0          
O        O      0.825400000000     0.707900000000     0.874750000000     0          
O        O      0.778750000000     0.679000000000     0.919250000000     0          
O        O      0.831200000000     0.661250000000     0.953000000000     0          
O        O      0.875000000000     0.625000000000     0.750000000000     0          
O        O      0.868600000000     0.541900000000     0.750000000000     0          
O        O      0.750000000000     0.688050000000     0.500000000000     0          
O        O      0.841200000000     0.500000000000     0.952400000000     0          
O        O      0.875000000000     0.500000000000     0.875000000000     0          
T        Si     0.812150000000     0.668750000000     0.905150000000     0          
T        Si     0.851550000000     0.586800000000     0.750000000000     0          
T        Si     0.750000000000     0.699100000000     0.556350000000     0          
T        Si     0.841900000000     0.500000000000     0.894600000000     0          
T        Si     0.861100000000     0.500000000000     0.500000000000     0          
O        O      0.674600000000     0.707900000000     0.625250000000     0          
O        O      0.721250000000     0.679000000000     0.580750000000     0          
O        O      0.668800000000     0.661250000000     0.547000000000     0          
O        O      0.625000000000     0.625000000000     0.750000000000     0          
O        O      0.631400000000     0.541900000000     0.750000000000     0          
O        O      0.750000000000     0.750000000000     0.936050000000     0          
O        O      0.658800000000     0.500000000000     0.547600000000     0          
O        O      0.625000000000     0.500000000000     0.625000000000     0          
T        Si     0.687850000000     0.668750000000     0.594850000000     0          
T        Si     0.648450000000     0.586800000000     0.750000000000     0          
T        Si     0.750000000000     0.699100000000     0.943650000000     0          
T        Si     0.658100000000     0.500000000000     0.605400000000     0          
O        O      0.825400000000     0.792100000000     0.625250000000     0          
O        O      0.778750000000     0.821000000000     0.580750000000     0          
O        O      0.831200000000     0.838750000000     0.547000000000     0          
O        O      0.875000000000     0.875000000000     0.750000000000     0          
O        O      0.868600000000     0.958100000000     0.750000000000     0          
O        O      0.841200000000     0.500000000000     0.547600000000     0          
O        O      0.875000000000     0.500000000000     0.625000000000     0          
T        Si     0.812150000000     0.831250000000     0.594850000000     0          
T        Si     0.851550000000     0.913200000000     0.750000000000     0          
T        Si     0.750000000000     0.800900000000     0.943650000000     0          
T        Si     0.841900000000     0.500000000000     0.605400000000     0          
O        O      0.825400000000     0.707900000000     0.625250000000     0          
O        O      0.778750000000     0.679000000000     0.580750000000     0          
O        O      0.831200000000     0.661250000000     0.547000000000     0          
T        Si     0.812150000000     0.668750000000     0.594850000000     0          
O        O      0.674600000000     0.792100000000     0.625250000000     0          
O        O      0.721250000000     0.821000000000     0.580750000000     0          
O        O      0.668800000000     0.838750000000     0.547000000000     0          
T        Si     0.687850000000     0.831250000000     0.594850000000     0          
O        O      0.825400000000     0.792100000000     0.874750000000     0          
O        O      0.778750000000     0.821000000000     0.919250000000     0          
O        O      0.831200000000     0.838750000000     0.953000000000     0          
T        Si     0.812150000000     0.831250000000     0.905150000000     0          
O        O      0.674600000000     0.707900000000     0.874750000000     0          
O        O      0.721250000000     0.679000000000     0.919250000000     0          
O        O      0.668800000000     0.661250000000     0.953000000000     0          
T        Si     0.687850000000     0.668750000000     0.905150000000     0          
O        O      0.924600000000     0.542100000000     0.874750000000     0          
O        O      0.971250000000     0.571000000000     0.919250000000     0          
O        O      0.936850000000     0.625000000000     0.875000000000     0          
O        O      0.918800000000     0.588750000000     0.953000000000     0          
O        O      0.881400000000     0.708100000000     0.750000000000     0          
O        O      0.500000000000     0.561950000000     0.500000000000     0          
O        O      0.500000000000     0.500000000000     0.563950000000     0          
O        O      0.908800000000     0.750000000000     0.952400000000     0          
T        Si     0.937850000000     0.581250000000     0.905150000000     0          
T        Si     0.898450000000     0.663200000000     0.750000000000     0          
T        Si     0.500000000000     0.550900000000     0.556350000000     0          
T        Si     0.908100000000     0.750000000000     0.894600000000     0          
T        Si     0.888900000000     0.750000000000     0.500000000000     0          
O        O      0.575400000000     0.957900000000     0.874750000000     0          
O        O      0.528750000000     0.929000000000     0.919250000000     0          
O        O      0.563150000000     0.875000000000     0.875000000000     0          
O        O      0.581200000000     0.911250000000     0.953000000000     0          
O        O      0.618600000000     0.791900000000     0.750000000000     0          
O        O      0.500000000000     0.938050000000     0.500000000000     0          
O        O      0.591200000000     0.750000000000     0.952400000000     0          
T        Si     0.562150000000     0.918750000000     0.905150000000     0          
T        Si     0.601550000000     0.836800000000     0.750000000000     0          
T        Si     0.500000000000     0.949100000000     0.556350000000     0          
T        Si     0.591900000000     0.750000000000     0.894600000000     0          
T        Si     0.611100000000     0.750000000000     0.500000000000     0          
O        O      0.924600000000     0.957900000000     0.625250000000     0          
O        O      0.971250000000     0.929000000000     0.580750000000     0          
O        O      0.936850000000     0.875000000000     0.625000000000     0          
O        O      0.918800000000     0.911250000000     0.547000000000     0          
O        O      0.881400000000     0.791900000000     0.750000000000     0          
O        O      0.500000000000     0.500000000000     0.936050000000     0          
O        O      0.908800000000     0.750000000000     0.547600000000     0          
T        Si     0.937850000000     0.918750000000     0.594850000000     0          
T        Si     0.898450000000     0.836800000000     0.750000000000     0          
T        Si     0.500000000000     0.949100000000     0.943650000000     0          
T        Si     0.908100000000     0.750000000000     0.605400000000     0          
O        O      0.575400000000     0.542100000000     0.625250000000     0          
O        O      0.528750000000     0.571000000000     0.580750000000     0          
O        O      0.563150000000     0.625000000000     0.625000000000     0          
O        O      0.581200000000     0.588750000000     0.547000000000     0          
O        O      0.618600000000     0.708100000000     0.750000000000     0          
O        O      0.591200000000     0.750000000000     0.547600000000     0          
T        Si     0.562150000000     0.581250000000     0.594850000000     0          
T        Si     0.601550000000     0.663200000000     0.750000000000     0          
T        Si     0.500000000000     0.550900000000     0.943650000000     0          
T        Si     0.591900000000     0.750000000000     0.605400000000     0          
O        O      0.575400000000     0.957900000000     0.625250000000     0          
O        O      0.528750000000     0.929000000000     0.580750000000     0          
O        O      0.563150000000     0.875000000000     0.625000000000     0          
O        O      0.581200000000     0.911250000000     0.547000000000     0          
T        Si     0.562150000000     0.918750000000     0.594850000000     0          
O        O      0.924600000000     0.542100000000     0.625250000000     0          
O        O      0.971250000000     0.571000000000     0.580750000000     0          
O        O      0.936850000000     0.625000000000     0.625000000000     0          
O        O      0.918800000000     0.588750000000     0.547000000000     0          
T        Si     0.937850000000     0.581250000000     0.594850000000     0          
O        O      0.575400000000     0.542100000000     0.874750000000     0          
O        O      0.528750000000     0.571000000000     0.919250000000     0          
O        O      0.563150000000     0.625000000000     0.875000000000     0          
O        O      0.581200000000     0.588750000000     0.953000000000     0          
T        Si     0.562150000000     0.581250000000     0.905150000000     0          
O        O      0.924600000000     0.957900000000     0.874750000000     0          
O        O      0.971250000000     0.929000000000     0.919250000000     0          
O        O      0.936850000000     0.875000000000     0.875000000000     0          
O        O      0.918800000000     0.911250000000     0.953000000000     0          
T        Si     0.937850000000     0.918750000000     0.905150000000     0          
O        O      0.924600000000     0.792100000000     0.624750000000     0          
O        O      0.971250000000     0.821000000000     0.669250000000     0          
O        O      0.918800000000     0.838750000000     0.703000000000     0          
O        O      0.881400000000     0.958100000000     0.500000000000     0          
O        O      0.500000000000     0.811950000000     0.750000000000     0          
O        O      0.500000000000     0.750000000000     0.813950000000     0          
O        O      0.908800000000     0.500000000000     0.702400000000     0          
T        Si     0.937850000000     0.831250000000     0.655150000000     0          
T        Si     0.898450000000     0.913200000000     0.500000000000     0          
T        Si     0.500000000000     0.800900000000     0.806350000000     0          
T        Si     0.908100000000     0.500000000000     0.644600000000     0          
T        Si     0.888900000000     0.500000000000     0.750000000000     0          
O        O      0.575400000000     0.707900000000     0.624750000000     0          
O        O      0.528750000000     0.679000000000     0.669250000000     0          
O        O      0.581200000000     0.661250000000     0.703000000000     0          
O        O      0.618600000000     0.541900000000     0.500000000000     0          
O        O      0.500000000000     0.688050000000     0.750000000000     0          
O        O      0.591200000000     0.500000000000     0.702400000000     0          
T        Si     0.562150000000     0.668750000000     0.655150000000     0          
T        Si     0.601550000000     0.586800000000     0.500000000000     0          
T        Si     0.500000000000     0.699100000000     0.806350000000     0          
T        Si     0.591900000000     0.500000000000     0.644600000000     0          
T        Si     0.611100000000     0.500000000000     0.750000000000     0          
O        O      0.924600000000     0.707900000000     0.875250000000     0          
O        O      0.971250000000     0.679000000000     0.830750000000     0          
O        O      0.918800000000     0.661250000000     0.797000000000     0          
O        O      0.881400000000     0.541900000000     0.500000000000     0          
O        O      0.500000000000     0.750000000000     0.686050000000     0          
O        O      0.908800000000     0.500000000000     0.797600000000     0          
T        Si     0.937850000000     0.668750000000     0.844850000000     0          
T        Si     0.898450000000     0.586800000000     0.500000000000     0          
T        Si     0.500000000000     0.699100000000     0.693650000000     0          
T        Si     0.908100000000     0.500000000000     0.855400000000     0          
O        O      0.575400000000     0.792100000000     0.875250000000     0          
O        O      0.528750000000     0.821000000000     0.830750000000     0          
O        O      0.581200000000     0.838750000000     0.797000000000     0          
O        O      0.618600000000     0.958100000000     0.500000000000     0          
O        O      0.591200000000     0.500000000000     0.797600000000     0          
T        Si     0.562150000000     0.831250000000     0.844850000000     0          
T        Si     0.601550000000     0.913200000000     0.500000000000     0          
T        Si     0.500000000000     0.800900000000     0.693650000000     0          
T        Si     0.591900000000     0.500000000000     0.855400000000     0          
O        O      0.575400000000     0.707900000000     0.875250000000     0          
O        O      0.528750000000     0.679000000000     0.830750000000     0          
O        O      0.581200000000     0.661250000000     0.797000000000     0          
T        Si     0.562150000000     0.668750000000     0.844850000000     0          
O        O      0.924600000000     0.792100000000     0.875250000000     0          
O        O      0.971250000000     0.821000000000     0.830750000000     0          
O        O      0.918800000000     0.838750000000     0.797000000000     0          
T        Si     0.937850000000     0.831250000000     0.844850000000     0          
O        O      0.575400000000     0.792100000000     0.624750000000     0          
O        O      0.528750000000     0.821000000000     0.669250000000     0          
O        O      0.581200000000     0.838750000000     0.703000000000     0          
T        Si     0.562150000000     0.831250000000     0.655150000000     0          
O        O      0.924600000000     0.707900000000     0.624750000000     0          
O        O      0.971250000000     0.679000000000     0.669250000000     0          
O        O      0.918800000000     0.661250000000     0.703000000000     0          
T        Si     0.937850000000     0.668750000000     0.655150000000     0          


