data_zeolite

_audit_creation_method RASPA-1.0
_audit_creation_date 2021-6-6
_audit_author_name ''

_cell_length_a    39.534
_cell_length_b    39.534
_cell_length_c    30.01
_cell_angle_alpha 90
_cell_angle_beta  90
_cell_angle_gamma 120
_cell_volume      40619.8

_symmetry_cell_setting          hexagonal
_symmetry_space_group_name_Hall 'P 1'
_symmetry_space_group_name_H-M  'P 1'
_symmetry_Int_Tables_number     1

_symmetry_equiv_pos_as_xyz 'x,y,z'

loop_
_atom_site_label
_atom_site_type_symbol
_atom_site_fract_x
_atom_site_fract_y
_atom_site_fract_z
_atom_site_charge
O        O      0.107233333333     0.007933333333     0.042850000000     0          
O        O      0.158466666667     0.079233333333     0.068100000000     0          
O        O      0.133800000000     0.021100000000     0.125000000000     0          
O        O      0.179900000000     0.026466666667     0.058950000000     0          
O        O      0.037500000000     0.295833333333     0.009250000000     0          
T        Si     0.144833333333     0.033666666667     0.073700000000     0          
T        Si     0.079766666667     0.000000000000     0.000000000000     0          
O        O      0.099300000000     0.107233333333     0.292850000000     0          
O        O      0.079233333333     0.158466666667     0.318100000000     0          
O        O      0.112700000000     0.133800000000     0.375000000000     0          
O        O      0.153433333333     0.179900000000     0.308950000000     0          
O        O      0.075000000000     0.037500000000     0.259250000000     0          
T        Si     0.111166666667     0.144833333333     0.323700000000     0          
T        Si     0.079766666667     0.079766666667     0.250000000000     0          
O        O      0.325400000000     0.099300000000     0.042850000000     0          
O        O      0.254100000000     0.079233333333     0.068100000000     0          
O        O      0.312233333333     0.112700000000     0.125000000000     0          
O        O      0.306866666667     0.153433333333     0.058950000000     0          
O        O      0.037500000000     0.075000000000     0.009250000000     0          
T        Si     0.299666666667     0.111166666667     0.073700000000     0          
T        Si     0.000000000000     0.079766666667     0.000000000000     0          
O        O      0.226100000000     0.325400000000     0.292850000000     0          
O        O      0.174866666667     0.254100000000     0.318100000000     0          
O        O      0.199533333333     0.312233333333     0.375000000000     0          
O        O      0.153433333333     0.306866666667     0.308950000000     0          
O        O      0.295833333333     0.037500000000     0.259250000000     0          
T        Si     0.188500000000     0.299666666667     0.323700000000     0          
T        Si     0.253566666667     0.000000000000     0.250000000000     0          
O        O      0.234033333333     0.226100000000     0.042850000000     0          
O        O      0.254100000000     0.174866666667     0.068100000000     0          
O        O      0.220633333333     0.199533333333     0.125000000000     0          
O        O      0.179900000000     0.153433333333     0.058950000000     0          
O        O      0.258333333333     0.295833333333     0.009250000000     0          
T        Si     0.222166666667     0.188500000000     0.073700000000     0          
T        Si     0.253566666667     0.253566666667     0.000000000000     0          
O        O      0.007933333333     0.234033333333     0.292850000000     0          
O        O      0.079233333333     0.254100000000     0.318100000000     0          
O        O      0.021100000000     0.220633333333     0.375000000000     0          
O        O      0.026466666667     0.179900000000     0.308950000000     0          
O        O      0.295833333333     0.258333333333     0.259250000000     0          
T        Si     0.033666666667     0.222166666667     0.323700000000     0          
T        Si     0.000000000000     0.253566666667     0.250000000000     0          
O        O      0.325400000000     0.226100000000     0.207150000000     0          
O        O      0.254100000000     0.174866666667     0.181900000000     0          
O        O      0.312233333333     0.199533333333     0.125000000000     0          
O        O      0.306866666667     0.153433333333     0.191050000000     0          
O        O      0.037500000000     0.295833333333     0.240750000000     0          
T        Si     0.299666666667     0.188500000000     0.176300000000     0          
O        O      0.099300000000     0.325400000000     0.457150000000     0          
O        O      0.079233333333     0.254100000000     0.431900000000     0          
O        O      0.112700000000     0.312233333333     0.375000000000     0          
O        O      0.153433333333     0.306866666667     0.441050000000     0          
O        O      0.075000000000     0.037500000000     0.490750000000     0          
T        Si     0.111166666667     0.299666666667     0.426300000000     0          
O        O      0.107233333333     0.099300000000     0.207150000000     0          
O        O      0.158466666667     0.079233333333     0.181900000000     0          
O        O      0.133800000000     0.112700000000     0.125000000000     0          
O        O      0.179900000000     0.153433333333     0.191050000000     0          
O        O      0.037500000000     0.075000000000     0.240750000000     0          
T        Si     0.144833333333     0.111166666667     0.176300000000     0          
O        O      0.007933333333     0.107233333333     0.457150000000     0          
O        O      0.079233333333     0.158466666667     0.431900000000     0          
O        O      0.021100000000     0.133800000000     0.375000000000     0          
O        O      0.026466666667     0.179900000000     0.441050000000     0          
O        O      0.295833333333     0.037500000000     0.490750000000     0          
T        Si     0.033666666667     0.144833333333     0.426300000000     0          
O        O      0.234033333333     0.007933333333     0.207150000000     0          
O        O      0.254100000000     0.079233333333     0.181900000000     0          
O        O      0.220633333333     0.021100000000     0.125000000000     0          
O        O      0.179900000000     0.026466666667     0.191050000000     0          
O        O      0.258333333333     0.295833333333     0.240750000000     0          
T        Si     0.222166666667     0.033666666667     0.176300000000     0          
O        O      0.226100000000     0.234033333333     0.457150000000     0          
O        O      0.174866666667     0.254100000000     0.431900000000     0          
O        O      0.199533333333     0.220633333333     0.375000000000     0          
O        O      0.153433333333     0.179900000000     0.441050000000     0          
O        O      0.295833333333     0.258333333333     0.490750000000     0          
T        Si     0.188500000000     0.222166666667     0.426300000000     0          
O        O      0.226100000000     0.325400000000     0.457150000000     0          
T        Si     0.188500000000     0.299666666667     0.426300000000     0          
T        Si     0.253566666667     0.000000000000     0.000000000000     0          
O        O      0.234033333333     0.226100000000     0.207150000000     0          
T        Si     0.222166666667     0.188500000000     0.176300000000     0          
T        Si     0.253566666667     0.253566666667     0.250000000000     0          
O        O      0.007933333333     0.234033333333     0.457150000000     0          
T        Si     0.033666666667     0.222166666667     0.426300000000     0          
T        Si     0.000000000000     0.253566666667     0.000000000000     0          
O        O      0.107233333333     0.007933333333     0.207150000000     0          
T        Si     0.144833333333     0.033666666667     0.176300000000     0          
T        Si     0.079766666667     0.000000000000     0.250000000000     0          
O        O      0.099300000000     0.107233333333     0.457150000000     0          
T        Si     0.111166666667     0.144833333333     0.426300000000     0          
T        Si     0.079766666667     0.079766666667     0.000000000000     0          
O        O      0.325400000000     0.099300000000     0.207150000000     0          
T        Si     0.299666666667     0.111166666667     0.176300000000     0          
T        Si     0.000000000000     0.079766666667     0.250000000000     0          
O        O      0.007933333333     0.107233333333     0.292850000000     0          
T        Si     0.033666666667     0.144833333333     0.323700000000     0          
O        O      0.234033333333     0.007933333333     0.042850000000     0          
T        Si     0.222166666667     0.033666666667     0.073700000000     0          
O        O      0.226100000000     0.234033333333     0.292850000000     0          
T        Si     0.188500000000     0.222166666667     0.323700000000     0          
O        O      0.325400000000     0.226100000000     0.042850000000     0          
T        Si     0.299666666667     0.188500000000     0.073700000000     0          
O        O      0.099300000000     0.325400000000     0.292850000000     0          
T        Si     0.111166666667     0.299666666667     0.323700000000     0          
O        O      0.107233333333     0.099300000000     0.042850000000     0          
T        Si     0.144833333333     0.111166666667     0.073700000000     0          
O        O      0.107233333333     0.007933333333     0.542850000000     0          
O        O      0.158466666667     0.079233333333     0.568100000000     0          
O        O      0.133800000000     0.021100000000     0.625000000000     0          
O        O      0.179900000000     0.026466666667     0.558950000000     0          
O        O      0.037500000000     0.295833333333     0.509250000000     0          
T        Si     0.144833333333     0.033666666667     0.573700000000     0          
T        Si     0.079766666667     0.000000000000     0.500000000000     0          
O        O      0.099300000000     0.107233333333     0.792850000000     0          
O        O      0.079233333333     0.158466666667     0.818100000000     0          
O        O      0.112700000000     0.133800000000     0.875000000000     0          
O        O      0.153433333333     0.179900000000     0.808950000000     0          
O        O      0.075000000000     0.037500000000     0.759250000000     0          
T        Si     0.111166666667     0.144833333333     0.823700000000     0          
T        Si     0.079766666667     0.079766666667     0.750000000000     0          
O        O      0.325400000000     0.099300000000     0.542850000000     0          
O        O      0.254100000000     0.079233333333     0.568100000000     0          
O        O      0.312233333333     0.112700000000     0.625000000000     0          
O        O      0.306866666667     0.153433333333     0.558950000000     0          
O        O      0.037500000000     0.075000000000     0.509250000000     0          
T        Si     0.299666666667     0.111166666667     0.573700000000     0          
T        Si     0.000000000000     0.079766666667     0.500000000000     0          
O        O      0.226100000000     0.325400000000     0.792850000000     0          
O        O      0.174866666667     0.254100000000     0.818100000000     0          
O        O      0.199533333333     0.312233333333     0.875000000000     0          
O        O      0.153433333333     0.306866666667     0.808950000000     0          
O        O      0.295833333333     0.037500000000     0.759250000000     0          
T        Si     0.188500000000     0.299666666667     0.823700000000     0          
T        Si     0.253566666667     0.000000000000     0.750000000000     0          
O        O      0.234033333333     0.226100000000     0.542850000000     0          
O        O      0.254100000000     0.174866666667     0.568100000000     0          
O        O      0.220633333333     0.199533333333     0.625000000000     0          
O        O      0.179900000000     0.153433333333     0.558950000000     0          
O        O      0.258333333333     0.295833333333     0.509250000000     0          
T        Si     0.222166666667     0.188500000000     0.573700000000     0          
T        Si     0.253566666667     0.253566666667     0.500000000000     0          
O        O      0.007933333333     0.234033333333     0.792850000000     0          
O        O      0.079233333333     0.254100000000     0.818100000000     0          
O        O      0.021100000000     0.220633333333     0.875000000000     0          
O        O      0.026466666667     0.179900000000     0.808950000000     0          
O        O      0.295833333333     0.258333333333     0.759250000000     0          
T        Si     0.033666666667     0.222166666667     0.823700000000     0          
T        Si     0.000000000000     0.253566666667     0.750000000000     0          
O        O      0.325400000000     0.226100000000     0.707150000000     0          
O        O      0.254100000000     0.174866666667     0.681900000000     0          
O        O      0.312233333333     0.199533333333     0.625000000000     0          
O        O      0.306866666667     0.153433333333     0.691050000000     0          
O        O      0.037500000000     0.295833333333     0.740750000000     0          
T        Si     0.299666666667     0.188500000000     0.676300000000     0          
O        O      0.099300000000     0.325400000000     0.957150000000     0          
O        O      0.079233333333     0.254100000000     0.931900000000     0          
O        O      0.112700000000     0.312233333333     0.875000000000     0          
O        O      0.153433333333     0.306866666667     0.941050000000     0          
O        O      0.075000000000     0.037500000000     0.990750000000     0          
T        Si     0.111166666667     0.299666666667     0.926300000000     0          
O        O      0.107233333333     0.099300000000     0.707150000000     0          
O        O      0.158466666667     0.079233333333     0.681900000000     0          
O        O      0.133800000000     0.112700000000     0.625000000000     0          
O        O      0.179900000000     0.153433333333     0.691050000000     0          
O        O      0.037500000000     0.075000000000     0.740750000000     0          
T        Si     0.144833333333     0.111166666667     0.676300000000     0          
O        O      0.007933333333     0.107233333333     0.957150000000     0          
O        O      0.079233333333     0.158466666667     0.931900000000     0          
O        O      0.021100000000     0.133800000000     0.875000000000     0          
O        O      0.026466666667     0.179900000000     0.941050000000     0          
O        O      0.295833333333     0.037500000000     0.990750000000     0          
T        Si     0.033666666667     0.144833333333     0.926300000000     0          
O        O      0.234033333333     0.007933333333     0.707150000000     0          
O        O      0.254100000000     0.079233333333     0.681900000000     0          
O        O      0.220633333333     0.021100000000     0.625000000000     0          
O        O      0.179900000000     0.026466666667     0.691050000000     0          
O        O      0.258333333333     0.295833333333     0.740750000000     0          
T        Si     0.222166666667     0.033666666667     0.676300000000     0          
O        O      0.226100000000     0.234033333333     0.957150000000     0          
O        O      0.174866666667     0.254100000000     0.931900000000     0          
O        O      0.199533333333     0.220633333333     0.875000000000     0          
O        O      0.153433333333     0.179900000000     0.941050000000     0          
O        O      0.295833333333     0.258333333333     0.990750000000     0          
T        Si     0.188500000000     0.222166666667     0.926300000000     0          
O        O      0.226100000000     0.325400000000     0.957150000000     0          
T        Si     0.188500000000     0.299666666667     0.926300000000     0          
T        Si     0.253566666667     0.000000000000     0.500000000000     0          
O        O      0.234033333333     0.226100000000     0.707150000000     0          
T        Si     0.222166666667     0.188500000000     0.676300000000     0          
T        Si     0.253566666667     0.253566666667     0.750000000000     0          
O        O      0.007933333333     0.234033333333     0.957150000000     0          
T        Si     0.033666666667     0.222166666667     0.926300000000     0          
T        Si     0.000000000000     0.253566666667     0.500000000000     0          
O        O      0.107233333333     0.007933333333     0.707150000000     0          
T        Si     0.144833333333     0.033666666667     0.676300000000     0          
T        Si     0.079766666667     0.000000000000     0.750000000000     0          
O        O      0.099300000000     0.107233333333     0.957150000000     0          
T        Si     0.111166666667     0.144833333333     0.926300000000     0          
T        Si     0.079766666667     0.079766666667     0.500000000000     0          
O        O      0.325400000000     0.099300000000     0.707150000000     0          
T        Si     0.299666666667     0.111166666667     0.676300000000     0          
T        Si     0.000000000000     0.079766666667     0.750000000000     0          
O        O      0.007933333333     0.107233333333     0.792850000000     0          
T        Si     0.033666666667     0.144833333333     0.823700000000     0          
O        O      0.234033333333     0.007933333333     0.542850000000     0          
T        Si     0.222166666667     0.033666666667     0.573700000000     0          
O        O      0.226100000000     0.234033333333     0.792850000000     0          
T        Si     0.188500000000     0.222166666667     0.823700000000     0          
O        O      0.325400000000     0.226100000000     0.542850000000     0          
T        Si     0.299666666667     0.188500000000     0.573700000000     0          
O        O      0.099300000000     0.325400000000     0.792850000000     0          
T        Si     0.111166666667     0.299666666667     0.823700000000     0          
O        O      0.107233333333     0.099300000000     0.542850000000     0          
T        Si     0.144833333333     0.111166666667     0.573700000000     0          
O        O      0.107233333333     0.341266666667     0.042850000000     0          
O        O      0.158466666667     0.412566666667     0.068100000000     0          
O        O      0.133800000000     0.354433333333     0.125000000000     0          
O        O      0.179900000000     0.359800000000     0.058950000000     0          
O        O      0.037500000000     0.629166666667     0.009250000000     0          
T        Si     0.144833333333     0.367000000000     0.073700000000     0          
T        Si     0.079766666667     0.333333333333     0.000000000000     0          
O        O      0.099300000000     0.440566666667     0.292850000000     0          
O        O      0.079233333333     0.491800000000     0.318100000000     0          
O        O      0.112700000000     0.467133333333     0.375000000000     0          
O        O      0.153433333333     0.513233333333     0.308950000000     0          
O        O      0.075000000000     0.370833333333     0.259250000000     0          
T        Si     0.111166666667     0.478166666667     0.323700000000     0          
T        Si     0.079766666667     0.413100000000     0.250000000000     0          
O        O      0.325400000000     0.432633333333     0.042850000000     0          
O        O      0.254100000000     0.412566666667     0.068100000000     0          
O        O      0.312233333333     0.446033333333     0.125000000000     0          
O        O      0.306866666667     0.486766666667     0.058950000000     0          
O        O      0.037500000000     0.408333333333     0.009250000000     0          
T        Si     0.299666666667     0.444500000000     0.073700000000     0          
T        Si     0.000000000000     0.413100000000     0.000000000000     0          
O        O      0.226100000000     0.658733333333     0.292850000000     0          
O        O      0.174866666667     0.587433333333     0.318100000000     0          
O        O      0.199533333333     0.645566666667     0.375000000000     0          
O        O      0.153433333333     0.640200000000     0.308950000000     0          
O        O      0.295833333333     0.370833333333     0.259250000000     0          
T        Si     0.188500000000     0.633000000000     0.323700000000     0          
T        Si     0.253566666667     0.333333333333     0.250000000000     0          
O        O      0.234033333333     0.559433333333     0.042850000000     0          
O        O      0.254100000000     0.508200000000     0.068100000000     0          
O        O      0.220633333333     0.532866666667     0.125000000000     0          
O        O      0.179900000000     0.486766666667     0.058950000000     0          
O        O      0.258333333333     0.629166666667     0.009250000000     0          
T        Si     0.222166666667     0.521833333333     0.073700000000     0          
T        Si     0.253566666667     0.586900000000     0.000000000000     0          
O        O      0.007933333333     0.567366666667     0.292850000000     0          
O        O      0.079233333333     0.587433333333     0.318100000000     0          
O        O      0.021100000000     0.553966666667     0.375000000000     0          
O        O      0.026466666667     0.513233333333     0.308950000000     0          
O        O      0.295833333333     0.591666666667     0.259250000000     0          
T        Si     0.033666666667     0.555500000000     0.323700000000     0          
T        Si     0.000000000000     0.586900000000     0.250000000000     0          
O        O      0.325400000000     0.559433333333     0.207150000000     0          
O        O      0.254100000000     0.508200000000     0.181900000000     0          
O        O      0.312233333333     0.532866666667     0.125000000000     0          
O        O      0.306866666667     0.486766666667     0.191050000000     0          
O        O      0.037500000000     0.629166666667     0.240750000000     0          
T        Si     0.299666666667     0.521833333333     0.176300000000     0          
O        O      0.099300000000     0.658733333333     0.457150000000     0          
O        O      0.079233333333     0.587433333333     0.431900000000     0          
O        O      0.112700000000     0.645566666667     0.375000000000     0          
O        O      0.153433333333     0.640200000000     0.441050000000     0          
O        O      0.075000000000     0.370833333333     0.490750000000     0          
T        Si     0.111166666667     0.633000000000     0.426300000000     0          
O        O      0.107233333333     0.432633333333     0.207150000000     0          
O        O      0.158466666667     0.412566666667     0.181900000000     0          
O        O      0.133800000000     0.446033333333     0.125000000000     0          
O        O      0.179900000000     0.486766666667     0.191050000000     0          
O        O      0.037500000000     0.408333333333     0.240750000000     0          
T        Si     0.144833333333     0.444500000000     0.176300000000     0          
O        O      0.007933333333     0.440566666667     0.457150000000     0          
O        O      0.079233333333     0.491800000000     0.431900000000     0          
O        O      0.021100000000     0.467133333333     0.375000000000     0          
O        O      0.026466666667     0.513233333333     0.441050000000     0          
O        O      0.295833333333     0.370833333333     0.490750000000     0          
T        Si     0.033666666667     0.478166666667     0.426300000000     0          
O        O      0.234033333333     0.341266666667     0.207150000000     0          
O        O      0.254100000000     0.412566666667     0.181900000000     0          
O        O      0.220633333333     0.354433333333     0.125000000000     0          
O        O      0.179900000000     0.359800000000     0.191050000000     0          
O        O      0.258333333333     0.629166666667     0.240750000000     0          
T        Si     0.222166666667     0.367000000000     0.176300000000     0          
O        O      0.226100000000     0.567366666667     0.457150000000     0          
O        O      0.174866666667     0.587433333333     0.431900000000     0          
O        O      0.199533333333     0.553966666667     0.375000000000     0          
O        O      0.153433333333     0.513233333333     0.441050000000     0          
O        O      0.295833333333     0.591666666667     0.490750000000     0          
T        Si     0.188500000000     0.555500000000     0.426300000000     0          
O        O      0.226100000000     0.658733333333     0.457150000000     0          
T        Si     0.188500000000     0.633000000000     0.426300000000     0          
T        Si     0.253566666667     0.333333333333     0.000000000000     0          
O        O      0.234033333333     0.559433333333     0.207150000000     0          
T        Si     0.222166666667     0.521833333333     0.176300000000     0          
T        Si     0.253566666667     0.586900000000     0.250000000000     0          
O        O      0.007933333333     0.567366666667     0.457150000000     0          
T        Si     0.033666666667     0.555500000000     0.426300000000     0          
T        Si     0.000000000000     0.586900000000     0.000000000000     0          
O        O      0.107233333333     0.341266666667     0.207150000000     0          
T        Si     0.144833333333     0.367000000000     0.176300000000     0          
T        Si     0.079766666667     0.333333333333     0.250000000000     0          
O        O      0.099300000000     0.440566666667     0.457150000000     0          
T        Si     0.111166666667     0.478166666667     0.426300000000     0          
T        Si     0.079766666667     0.413100000000     0.000000000000     0          
O        O      0.325400000000     0.432633333333     0.207150000000     0          
T        Si     0.299666666667     0.444500000000     0.176300000000     0          
T        Si     0.000000000000     0.413100000000     0.250000000000     0          
O        O      0.007933333333     0.440566666667     0.292850000000     0          
T        Si     0.033666666667     0.478166666667     0.323700000000     0          
O        O      0.234033333333     0.341266666667     0.042850000000     0          
T        Si     0.222166666667     0.367000000000     0.073700000000     0          
O        O      0.226100000000     0.567366666667     0.292850000000     0          
T        Si     0.188500000000     0.555500000000     0.323700000000     0          
O        O      0.325400000000     0.559433333333     0.042850000000     0          
T        Si     0.299666666667     0.521833333333     0.073700000000     0          
O        O      0.099300000000     0.658733333333     0.292850000000     0          
T        Si     0.111166666667     0.633000000000     0.323700000000     0          
O        O      0.107233333333     0.432633333333     0.042850000000     0          
T        Si     0.144833333333     0.444500000000     0.073700000000     0          
O        O      0.107233333333     0.341266666667     0.542850000000     0          
O        O      0.158466666667     0.412566666667     0.568100000000     0          
O        O      0.133800000000     0.354433333333     0.625000000000     0          
O        O      0.179900000000     0.359800000000     0.558950000000     0          
O        O      0.037500000000     0.629166666667     0.509250000000     0          
T        Si     0.144833333333     0.367000000000     0.573700000000     0          
T        Si     0.079766666667     0.333333333333     0.500000000000     0          
O        O      0.099300000000     0.440566666667     0.792850000000     0          
O        O      0.079233333333     0.491800000000     0.818100000000     0          
O        O      0.112700000000     0.467133333333     0.875000000000     0          
O        O      0.153433333333     0.513233333333     0.808950000000     0          
O        O      0.075000000000     0.370833333333     0.759250000000     0          
T        Si     0.111166666667     0.478166666667     0.823700000000     0          
T        Si     0.079766666667     0.413100000000     0.750000000000     0          
O        O      0.325400000000     0.432633333333     0.542850000000     0          
O        O      0.254100000000     0.412566666667     0.568100000000     0          
O        O      0.312233333333     0.446033333333     0.625000000000     0          
O        O      0.306866666667     0.486766666667     0.558950000000     0          
O        O      0.037500000000     0.408333333333     0.509250000000     0          
T        Si     0.299666666667     0.444500000000     0.573700000000     0          
T        Si     0.000000000000     0.413100000000     0.500000000000     0          
O        O      0.226100000000     0.658733333333     0.792850000000     0          
O        O      0.174866666667     0.587433333333     0.818100000000     0          
O        O      0.199533333333     0.645566666667     0.875000000000     0          
O        O      0.153433333333     0.640200000000     0.808950000000     0          
O        O      0.295833333333     0.370833333333     0.759250000000     0          
T        Si     0.188500000000     0.633000000000     0.823700000000     0          
T        Si     0.253566666667     0.333333333333     0.750000000000     0          
O        O      0.234033333333     0.559433333333     0.542850000000     0          
O        O      0.254100000000     0.508200000000     0.568100000000     0          
O        O      0.220633333333     0.532866666667     0.625000000000     0          
O        O      0.179900000000     0.486766666667     0.558950000000     0          
O        O      0.258333333333     0.629166666667     0.509250000000     0          
T        Si     0.222166666667     0.521833333333     0.573700000000     0          
T        Si     0.253566666667     0.586900000000     0.500000000000     0          
O        O      0.007933333333     0.567366666667     0.792850000000     0          
O        O      0.079233333333     0.587433333333     0.818100000000     0          
O        O      0.021100000000     0.553966666667     0.875000000000     0          
O        O      0.026466666667     0.513233333333     0.808950000000     0          
O        O      0.295833333333     0.591666666667     0.759250000000     0          
T        Si     0.033666666667     0.555500000000     0.823700000000     0          
T        Si     0.000000000000     0.586900000000     0.750000000000     0          
O        O      0.325400000000     0.559433333333     0.707150000000     0          
O        O      0.254100000000     0.508200000000     0.681900000000     0          
O        O      0.312233333333     0.532866666667     0.625000000000     0          
O        O      0.306866666667     0.486766666667     0.691050000000     0          
O        O      0.037500000000     0.629166666667     0.740750000000     0          
T        Si     0.299666666667     0.521833333333     0.676300000000     0          
O        O      0.099300000000     0.658733333333     0.957150000000     0          
O        O      0.079233333333     0.587433333333     0.931900000000     0          
O        O      0.112700000000     0.645566666667     0.875000000000     0          
O        O      0.153433333333     0.640200000000     0.941050000000     0          
O        O      0.075000000000     0.370833333333     0.990750000000     0          
T        Si     0.111166666667     0.633000000000     0.926300000000     0          
O        O      0.107233333333     0.432633333333     0.707150000000     0          
O        O      0.158466666667     0.412566666667     0.681900000000     0          
O        O      0.133800000000     0.446033333333     0.625000000000     0          
O        O      0.179900000000     0.486766666667     0.691050000000     0          
O        O      0.037500000000     0.408333333333     0.740750000000     0          
T        Si     0.144833333333     0.444500000000     0.676300000000     0          
O        O      0.007933333333     0.440566666667     0.957150000000     0          
O        O      0.079233333333     0.491800000000     0.931900000000     0          
O        O      0.021100000000     0.467133333333     0.875000000000     0          
O        O      0.026466666667     0.513233333333     0.941050000000     0          
O        O      0.295833333333     0.370833333333     0.990750000000     0          
T        Si     0.033666666667     0.478166666667     0.926300000000     0          
O        O      0.234033333333     0.341266666667     0.707150000000     0          
O        O      0.254100000000     0.412566666667     0.681900000000     0          
O        O      0.220633333333     0.354433333333     0.625000000000     0          
O        O      0.179900000000     0.359800000000     0.691050000000     0          
O        O      0.258333333333     0.629166666667     0.740750000000     0          
T        Si     0.222166666667     0.367000000000     0.676300000000     0          
O        O      0.226100000000     0.567366666667     0.957150000000     0          
O        O      0.174866666667     0.587433333333     0.931900000000     0          
O        O      0.199533333333     0.553966666667     0.875000000000     0          
O        O      0.153433333333     0.513233333333     0.941050000000     0          
O        O      0.295833333333     0.591666666667     0.990750000000     0          
T        Si     0.188500000000     0.555500000000     0.926300000000     0          
O        O      0.226100000000     0.658733333333     0.957150000000     0          
T        Si     0.188500000000     0.633000000000     0.926300000000     0          
T        Si     0.253566666667     0.333333333333     0.500000000000     0          
O        O      0.234033333333     0.559433333333     0.707150000000     0          
T        Si     0.222166666667     0.521833333333     0.676300000000     0          
T        Si     0.253566666667     0.586900000000     0.750000000000     0          
O        O      0.007933333333     0.567366666667     0.957150000000     0          
T        Si     0.033666666667     0.555500000000     0.926300000000     0          
T        Si     0.000000000000     0.586900000000     0.500000000000     0          
O        O      0.107233333333     0.341266666667     0.707150000000     0          
T        Si     0.144833333333     0.367000000000     0.676300000000     0          
T        Si     0.079766666667     0.333333333333     0.750000000000     0          
O        O      0.099300000000     0.440566666667     0.957150000000     0          
T        Si     0.111166666667     0.478166666667     0.926300000000     0          
T        Si     0.079766666667     0.413100000000     0.500000000000     0          
O        O      0.325400000000     0.432633333333     0.707150000000     0          
T        Si     0.299666666667     0.444500000000     0.676300000000     0          
T        Si     0.000000000000     0.413100000000     0.750000000000     0          
O        O      0.007933333333     0.440566666667     0.792850000000     0          
T        Si     0.033666666667     0.478166666667     0.823700000000     0          
O        O      0.234033333333     0.341266666667     0.542850000000     0          
T        Si     0.222166666667     0.367000000000     0.573700000000     0          
O        O      0.226100000000     0.567366666667     0.792850000000     0          
T        Si     0.188500000000     0.555500000000     0.823700000000     0          
O        O      0.325400000000     0.559433333333     0.542850000000     0          
T        Si     0.299666666667     0.521833333333     0.573700000000     0          
O        O      0.099300000000     0.658733333333     0.792850000000     0          
T        Si     0.111166666667     0.633000000000     0.823700000000     0          
O        O      0.107233333333     0.432633333333     0.542850000000     0          
T        Si     0.144833333333     0.444500000000     0.573700000000     0          
O        O      0.107233333333     0.674600000000     0.042850000000     0          
O        O      0.158466666667     0.745900000000     0.068100000000     0          
O        O      0.133800000000     0.687766666667     0.125000000000     0          
O        O      0.179900000000     0.693133333333     0.058950000000     0          
O        O      0.037500000000     0.962500000000     0.009250000000     0          
T        Si     0.144833333333     0.700333333333     0.073700000000     0          
T        Si     0.079766666667     0.666666666667     0.000000000000     0          
O        O      0.099300000000     0.773900000000     0.292850000000     0          
O        O      0.079233333333     0.825133333333     0.318100000000     0          
O        O      0.112700000000     0.800466666667     0.375000000000     0          
O        O      0.153433333333     0.846566666667     0.308950000000     0          
O        O      0.075000000000     0.704166666667     0.259250000000     0          
T        Si     0.111166666667     0.811500000000     0.323700000000     0          
T        Si     0.079766666667     0.746433333333     0.250000000000     0          
O        O      0.325400000000     0.765966666667     0.042850000000     0          
O        O      0.254100000000     0.745900000000     0.068100000000     0          
O        O      0.312233333333     0.779366666667     0.125000000000     0          
O        O      0.306866666667     0.820100000000     0.058950000000     0          
O        O      0.037500000000     0.741666666667     0.009250000000     0          
T        Si     0.299666666667     0.777833333333     0.073700000000     0          
T        Si     0.000000000000     0.746433333333     0.000000000000     0          
O        O      0.226100000000     0.992066666667     0.292850000000     0          
O        O      0.174866666667     0.920766666667     0.318100000000     0          
O        O      0.199533333333     0.978900000000     0.375000000000     0          
O        O      0.153433333333     0.973533333333     0.308950000000     0          
O        O      0.295833333333     0.704166666667     0.259250000000     0          
T        Si     0.188500000000     0.966333333333     0.323700000000     0          
T        Si     0.253566666667     0.666666666667     0.250000000000     0          
O        O      0.234033333333     0.892766666667     0.042850000000     0          
O        O      0.254100000000     0.841533333333     0.068100000000     0          
O        O      0.220633333333     0.866200000000     0.125000000000     0          
O        O      0.179900000000     0.820100000000     0.058950000000     0          
O        O      0.258333333333     0.962500000000     0.009250000000     0          
T        Si     0.222166666667     0.855166666667     0.073700000000     0          
T        Si     0.253566666667     0.920233333333     0.000000000000     0          
O        O      0.007933333333     0.900700000000     0.292850000000     0          
O        O      0.079233333333     0.920766666667     0.318100000000     0          
O        O      0.021100000000     0.887300000000     0.375000000000     0          
O        O      0.026466666667     0.846566666667     0.308950000000     0          
O        O      0.295833333333     0.925000000000     0.259250000000     0          
T        Si     0.033666666667     0.888833333333     0.323700000000     0          
T        Si     0.000000000000     0.920233333333     0.250000000000     0          
O        O      0.325400000000     0.892766666667     0.207150000000     0          
O        O      0.254100000000     0.841533333333     0.181900000000     0          
O        O      0.312233333333     0.866200000000     0.125000000000     0          
O        O      0.306866666667     0.820100000000     0.191050000000     0          
O        O      0.037500000000     0.962500000000     0.240750000000     0          
T        Si     0.299666666667     0.855166666667     0.176300000000     0          
O        O      0.099300000000     0.992066666667     0.457150000000     0          
O        O      0.079233333333     0.920766666667     0.431900000000     0          
O        O      0.112700000000     0.978900000000     0.375000000000     0          
O        O      0.153433333333     0.973533333333     0.441050000000     0          
O        O      0.075000000000     0.704166666667     0.490750000000     0          
T        Si     0.111166666667     0.966333333333     0.426300000000     0          
O        O      0.107233333333     0.765966666667     0.207150000000     0          
O        O      0.158466666667     0.745900000000     0.181900000000     0          
O        O      0.133800000000     0.779366666667     0.125000000000     0          
O        O      0.179900000000     0.820100000000     0.191050000000     0          
O        O      0.037500000000     0.741666666667     0.240750000000     0          
T        Si     0.144833333333     0.777833333333     0.176300000000     0          
O        O      0.007933333333     0.773900000000     0.457150000000     0          
O        O      0.079233333333     0.825133333333     0.431900000000     0          
O        O      0.021100000000     0.800466666667     0.375000000000     0          
O        O      0.026466666667     0.846566666667     0.441050000000     0          
O        O      0.295833333333     0.704166666667     0.490750000000     0          
T        Si     0.033666666667     0.811500000000     0.426300000000     0          
O        O      0.234033333333     0.674600000000     0.207150000000     0          
O        O      0.254100000000     0.745900000000     0.181900000000     0          
O        O      0.220633333333     0.687766666667     0.125000000000     0          
O        O      0.179900000000     0.693133333333     0.191050000000     0          
O        O      0.258333333333     0.962500000000     0.240750000000     0          
T        Si     0.222166666667     0.700333333333     0.176300000000     0          
O        O      0.226100000000     0.900700000000     0.457150000000     0          
O        O      0.174866666667     0.920766666667     0.431900000000     0          
O        O      0.199533333333     0.887300000000     0.375000000000     0          
O        O      0.153433333333     0.846566666667     0.441050000000     0          
O        O      0.295833333333     0.925000000000     0.490750000000     0          
T        Si     0.188500000000     0.888833333333     0.426300000000     0          
O        O      0.226100000000     0.992066666667     0.457150000000     0          
T        Si     0.188500000000     0.966333333333     0.426300000000     0          
T        Si     0.253566666667     0.666666666667     0.000000000000     0          
O        O      0.234033333333     0.892766666667     0.207150000000     0          
T        Si     0.222166666667     0.855166666667     0.176300000000     0          
T        Si     0.253566666667     0.920233333333     0.250000000000     0          
O        O      0.007933333333     0.900700000000     0.457150000000     0          
T        Si     0.033666666667     0.888833333333     0.426300000000     0          
T        Si     0.000000000000     0.920233333333     0.000000000000     0          
O        O      0.107233333333     0.674600000000     0.207150000000     0          
T        Si     0.144833333333     0.700333333333     0.176300000000     0          
T        Si     0.079766666667     0.666666666667     0.250000000000     0          
O        O      0.099300000000     0.773900000000     0.457150000000     0          
T        Si     0.111166666667     0.811500000000     0.426300000000     0          
T        Si     0.079766666667     0.746433333333     0.000000000000     0          
O        O      0.325400000000     0.765966666667     0.207150000000     0          
T        Si     0.299666666667     0.777833333333     0.176300000000     0          
T        Si     0.000000000000     0.746433333333     0.250000000000     0          
O        O      0.007933333333     0.773900000000     0.292850000000     0          
T        Si     0.033666666667     0.811500000000     0.323700000000     0          
O        O      0.234033333333     0.674600000000     0.042850000000     0          
T        Si     0.222166666667     0.700333333333     0.073700000000     0          
O        O      0.226100000000     0.900700000000     0.292850000000     0          
T        Si     0.188500000000     0.888833333333     0.323700000000     0          
O        O      0.325400000000     0.892766666667     0.042850000000     0          
T        Si     0.299666666667     0.855166666667     0.073700000000     0          
O        O      0.099300000000     0.992066666667     0.292850000000     0          
T        Si     0.111166666667     0.966333333333     0.323700000000     0          
O        O      0.107233333333     0.765966666667     0.042850000000     0          
T        Si     0.144833333333     0.777833333333     0.073700000000     0          
O        O      0.107233333333     0.674600000000     0.542850000000     0          
O        O      0.158466666667     0.745900000000     0.568100000000     0          
O        O      0.133800000000     0.687766666667     0.625000000000     0          
O        O      0.179900000000     0.693133333333     0.558950000000     0          
O        O      0.037500000000     0.962500000000     0.509250000000     0          
T        Si     0.144833333333     0.700333333333     0.573700000000     0          
T        Si     0.079766666667     0.666666666667     0.500000000000     0          
O        O      0.099300000000     0.773900000000     0.792850000000     0          
O        O      0.079233333333     0.825133333333     0.818100000000     0          
O        O      0.112700000000     0.800466666667     0.875000000000     0          
O        O      0.153433333333     0.846566666667     0.808950000000     0          
O        O      0.075000000000     0.704166666667     0.759250000000     0          
T        Si     0.111166666667     0.811500000000     0.823700000000     0          
T        Si     0.079766666667     0.746433333333     0.750000000000     0          
O        O      0.325400000000     0.765966666667     0.542850000000     0          
O        O      0.254100000000     0.745900000000     0.568100000000     0          
O        O      0.312233333333     0.779366666667     0.625000000000     0          
O        O      0.306866666667     0.820100000000     0.558950000000     0          
O        O      0.037500000000     0.741666666667     0.509250000000     0          
T        Si     0.299666666667     0.777833333333     0.573700000000     0          
T        Si     0.000000000000     0.746433333333     0.500000000000     0          
O        O      0.226100000000     0.992066666667     0.792850000000     0          
O        O      0.174866666667     0.920766666667     0.818100000000     0          
O        O      0.199533333333     0.978900000000     0.875000000000     0          
O        O      0.153433333333     0.973533333333     0.808950000000     0          
O        O      0.295833333333     0.704166666667     0.759250000000     0          
T        Si     0.188500000000     0.966333333333     0.823700000000     0          
T        Si     0.253566666667     0.666666666667     0.750000000000     0          
O        O      0.234033333333     0.892766666667     0.542850000000     0          
O        O      0.254100000000     0.841533333333     0.568100000000     0          
O        O      0.220633333333     0.866200000000     0.625000000000     0          
O        O      0.179900000000     0.820100000000     0.558950000000     0          
O        O      0.258333333333     0.962500000000     0.509250000000     0          
T        Si     0.222166666667     0.855166666667     0.573700000000     0          
T        Si     0.253566666667     0.920233333333     0.500000000000     0          
O        O      0.007933333333     0.900700000000     0.792850000000     0          
O        O      0.079233333333     0.920766666667     0.818100000000     0          
O        O      0.021100000000     0.887300000000     0.875000000000     0          
O        O      0.026466666667     0.846566666667     0.808950000000     0          
O        O      0.295833333333     0.925000000000     0.759250000000     0          
T        Si     0.033666666667     0.888833333333     0.823700000000     0          
T        Si     0.000000000000     0.920233333333     0.750000000000     0          
O        O      0.325400000000     0.892766666667     0.707150000000     0          
O        O      0.254100000000     0.841533333333     0.681900000000     0          
O        O      0.312233333333     0.866200000000     0.625000000000     0          
O        O      0.306866666667     0.820100000000     0.691050000000     0          
O        O      0.037500000000     0.962500000000     0.740750000000     0          
T        Si     0.299666666667     0.855166666667     0.676300000000     0          
O        O      0.099300000000     0.992066666667     0.957150000000     0          
O        O      0.079233333333     0.920766666667     0.931900000000     0          
O        O      0.112700000000     0.978900000000     0.875000000000     0          
O        O      0.153433333333     0.973533333333     0.941050000000     0          
O        O      0.075000000000     0.704166666667     0.990750000000     0          
T        Si     0.111166666667     0.966333333333     0.926300000000     0          
O        O      0.107233333333     0.765966666667     0.707150000000     0          
O        O      0.158466666667     0.745900000000     0.681900000000     0          
O        O      0.133800000000     0.779366666667     0.625000000000     0          
O        O      0.179900000000     0.820100000000     0.691050000000     0          
O        O      0.037500000000     0.741666666667     0.740750000000     0          
T        Si     0.144833333333     0.777833333333     0.676300000000     0          
O        O      0.007933333333     0.773900000000     0.957150000000     0          
O        O      0.079233333333     0.825133333333     0.931900000000     0          
O        O      0.021100000000     0.800466666667     0.875000000000     0          
O        O      0.026466666667     0.846566666667     0.941050000000     0          
O        O      0.295833333333     0.704166666667     0.990750000000     0          
T        Si     0.033666666667     0.811500000000     0.926300000000     0          
O        O      0.234033333333     0.674600000000     0.707150000000     0          
O        O      0.254100000000     0.745900000000     0.681900000000     0          
O        O      0.220633333333     0.687766666667     0.625000000000     0          
O        O      0.179900000000     0.693133333333     0.691050000000     0          
O        O      0.258333333333     0.962500000000     0.740750000000     0          
T        Si     0.222166666667     0.700333333333     0.676300000000     0          
O        O      0.226100000000     0.900700000000     0.957150000000     0          
O        O      0.174866666667     0.920766666667     0.931900000000     0          
O        O      0.199533333333     0.887300000000     0.875000000000     0          
O        O      0.153433333333     0.846566666667     0.941050000000     0          
O        O      0.295833333333     0.925000000000     0.990750000000     0          
T        Si     0.188500000000     0.888833333333     0.926300000000     0          
O        O      0.226100000000     0.992066666667     0.957150000000     0          
T        Si     0.188500000000     0.966333333333     0.926300000000     0          
T        Si     0.253566666667     0.666666666667     0.500000000000     0          
O        O      0.234033333333     0.892766666667     0.707150000000     0          
T        Si     0.222166666667     0.855166666667     0.676300000000     0          
T        Si     0.253566666667     0.920233333333     0.750000000000     0          
O        O      0.007933333333     0.900700000000     0.957150000000     0          
T        Si     0.033666666667     0.888833333333     0.926300000000     0          
T        Si     0.000000000000     0.920233333333     0.500000000000     0          
O        O      0.107233333333     0.674600000000     0.707150000000     0          
T        Si     0.144833333333     0.700333333333     0.676300000000     0          
T        Si     0.079766666667     0.666666666667     0.750000000000     0          
O        O      0.099300000000     0.773900000000     0.957150000000     0          
T        Si     0.111166666667     0.811500000000     0.926300000000     0          
T        Si     0.079766666667     0.746433333333     0.500000000000     0          
O        O      0.325400000000     0.765966666667     0.707150000000     0          
T        Si     0.299666666667     0.777833333333     0.676300000000     0          
T        Si     0.000000000000     0.746433333333     0.750000000000     0          
O        O      0.007933333333     0.773900000000     0.792850000000     0          
T        Si     0.033666666667     0.811500000000     0.823700000000     0          
O        O      0.234033333333     0.674600000000     0.542850000000     0          
T        Si     0.222166666667     0.700333333333     0.573700000000     0          
O        O      0.226100000000     0.900700000000     0.792850000000     0          
T        Si     0.188500000000     0.888833333333     0.823700000000     0          
O        O      0.325400000000     0.892766666667     0.542850000000     0          
T        Si     0.299666666667     0.855166666667     0.573700000000     0          
O        O      0.099300000000     0.992066666667     0.792850000000     0          
T        Si     0.111166666667     0.966333333333     0.823700000000     0          
O        O      0.107233333333     0.765966666667     0.542850000000     0          
T        Si     0.144833333333     0.777833333333     0.573700000000     0          
O        O      0.440566666667     0.007933333333     0.042850000000     0          
O        O      0.491800000000     0.079233333333     0.068100000000     0          
O        O      0.467133333333     0.021100000000     0.125000000000     0          
O        O      0.513233333333     0.026466666667     0.058950000000     0          
O        O      0.370833333333     0.295833333333     0.009250000000     0          
T        Si     0.478166666667     0.033666666667     0.073700000000     0          
T        Si     0.413100000000     0.000000000000     0.000000000000     0          
O        O      0.432633333333     0.107233333333     0.292850000000     0          
O        O      0.412566666667     0.158466666667     0.318100000000     0          
O        O      0.446033333333     0.133800000000     0.375000000000     0          
O        O      0.486766666667     0.179900000000     0.308950000000     0          
O        O      0.408333333333     0.037500000000     0.259250000000     0          
T        Si     0.444500000000     0.144833333333     0.323700000000     0          
T        Si     0.413100000000     0.079766666667     0.250000000000     0          
O        O      0.658733333333     0.099300000000     0.042850000000     0          
O        O      0.587433333333     0.079233333333     0.068100000000     0          
O        O      0.645566666667     0.112700000000     0.125000000000     0          
O        O      0.640200000000     0.153433333333     0.058950000000     0          
O        O      0.370833333333     0.075000000000     0.009250000000     0          
T        Si     0.633000000000     0.111166666667     0.073700000000     0          
T        Si     0.333333333333     0.079766666667     0.000000000000     0          
O        O      0.559433333333     0.325400000000     0.292850000000     0          
O        O      0.508200000000     0.254100000000     0.318100000000     0          
O        O      0.532866666667     0.312233333333     0.375000000000     0          
O        O      0.486766666667     0.306866666667     0.308950000000     0          
O        O      0.629166666667     0.037500000000     0.259250000000     0          
T        Si     0.521833333333     0.299666666667     0.323700000000     0          
T        Si     0.586900000000     0.000000000000     0.250000000000     0          
O        O      0.567366666667     0.226100000000     0.042850000000     0          
O        O      0.587433333333     0.174866666667     0.068100000000     0          
O        O      0.553966666667     0.199533333333     0.125000000000     0          
O        O      0.513233333333     0.153433333333     0.058950000000     0          
O        O      0.591666666667     0.295833333333     0.009250000000     0          
T        Si     0.555500000000     0.188500000000     0.073700000000     0          
T        Si     0.586900000000     0.253566666667     0.000000000000     0          
O        O      0.341266666667     0.234033333333     0.292850000000     0          
O        O      0.412566666667     0.254100000000     0.318100000000     0          
O        O      0.354433333333     0.220633333333     0.375000000000     0          
O        O      0.359800000000     0.179900000000     0.308950000000     0          
O        O      0.629166666667     0.258333333333     0.259250000000     0          
T        Si     0.367000000000     0.222166666667     0.323700000000     0          
T        Si     0.333333333333     0.253566666667     0.250000000000     0          
O        O      0.658733333333     0.226100000000     0.207150000000     0          
O        O      0.587433333333     0.174866666667     0.181900000000     0          
O        O      0.645566666667     0.199533333333     0.125000000000     0          
O        O      0.640200000000     0.153433333333     0.191050000000     0          
O        O      0.370833333333     0.295833333333     0.240750000000     0          
T        Si     0.633000000000     0.188500000000     0.176300000000     0          
O        O      0.432633333333     0.325400000000     0.457150000000     0          
O        O      0.412566666667     0.254100000000     0.431900000000     0          
O        O      0.446033333333     0.312233333333     0.375000000000     0          
O        O      0.486766666667     0.306866666667     0.441050000000     0          
O        O      0.408333333333     0.037500000000     0.490750000000     0          
T        Si     0.444500000000     0.299666666667     0.426300000000     0          
O        O      0.440566666667     0.099300000000     0.207150000000     0          
O        O      0.491800000000     0.079233333333     0.181900000000     0          
O        O      0.467133333333     0.112700000000     0.125000000000     0          
O        O      0.513233333333     0.153433333333     0.191050000000     0          
O        O      0.370833333333     0.075000000000     0.240750000000     0          
T        Si     0.478166666667     0.111166666667     0.176300000000     0          
O        O      0.341266666667     0.107233333333     0.457150000000     0          
O        O      0.412566666667     0.158466666667     0.431900000000     0          
O        O      0.354433333333     0.133800000000     0.375000000000     0          
O        O      0.359800000000     0.179900000000     0.441050000000     0          
O        O      0.629166666667     0.037500000000     0.490750000000     0          
T        Si     0.367000000000     0.144833333333     0.426300000000     0          
O        O      0.567366666667     0.007933333333     0.207150000000     0          
O        O      0.587433333333     0.079233333333     0.181900000000     0          
O        O      0.553966666667     0.021100000000     0.125000000000     0          
O        O      0.513233333333     0.026466666667     0.191050000000     0          
O        O      0.591666666667     0.295833333333     0.240750000000     0          
T        Si     0.555500000000     0.033666666667     0.176300000000     0          
O        O      0.559433333333     0.234033333333     0.457150000000     0          
O        O      0.508200000000     0.254100000000     0.431900000000     0          
O        O      0.532866666667     0.220633333333     0.375000000000     0          
O        O      0.486766666667     0.179900000000     0.441050000000     0          
O        O      0.629166666667     0.258333333333     0.490750000000     0          
T        Si     0.521833333333     0.222166666667     0.426300000000     0          
O        O      0.559433333333     0.325400000000     0.457150000000     0          
T        Si     0.521833333333     0.299666666667     0.426300000000     0          
T        Si     0.586900000000     0.000000000000     0.000000000000     0          
O        O      0.567366666667     0.226100000000     0.207150000000     0          
T        Si     0.555500000000     0.188500000000     0.176300000000     0          
T        Si     0.586900000000     0.253566666667     0.250000000000     0          
O        O      0.341266666667     0.234033333333     0.457150000000     0          
T        Si     0.367000000000     0.222166666667     0.426300000000     0          
T        Si     0.333333333333     0.253566666667     0.000000000000     0          
O        O      0.440566666667     0.007933333333     0.207150000000     0          
T        Si     0.478166666667     0.033666666667     0.176300000000     0          
T        Si     0.413100000000     0.000000000000     0.250000000000     0          
O        O      0.432633333333     0.107233333333     0.457150000000     0          
T        Si     0.444500000000     0.144833333333     0.426300000000     0          
T        Si     0.413100000000     0.079766666667     0.000000000000     0          
O        O      0.658733333333     0.099300000000     0.207150000000     0          
T        Si     0.633000000000     0.111166666667     0.176300000000     0          
T        Si     0.333333333333     0.079766666667     0.250000000000     0          
O        O      0.341266666667     0.107233333333     0.292850000000     0          
T        Si     0.367000000000     0.144833333333     0.323700000000     0          
O        O      0.567366666667     0.007933333333     0.042850000000     0          
T        Si     0.555500000000     0.033666666667     0.073700000000     0          
O        O      0.559433333333     0.234033333333     0.292850000000     0          
T        Si     0.521833333333     0.222166666667     0.323700000000     0          
O        O      0.658733333333     0.226100000000     0.042850000000     0          
T        Si     0.633000000000     0.188500000000     0.073700000000     0          
O        O      0.432633333333     0.325400000000     0.292850000000     0          
T        Si     0.444500000000     0.299666666667     0.323700000000     0          
O        O      0.440566666667     0.099300000000     0.042850000000     0          
T        Si     0.478166666667     0.111166666667     0.073700000000     0          
O        O      0.440566666667     0.007933333333     0.542850000000     0          
O        O      0.491800000000     0.079233333333     0.568100000000     0          
O        O      0.467133333333     0.021100000000     0.625000000000     0          
O        O      0.513233333333     0.026466666667     0.558950000000     0          
O        O      0.370833333333     0.295833333333     0.509250000000     0          
T        Si     0.478166666667     0.033666666667     0.573700000000     0          
T        Si     0.413100000000     0.000000000000     0.500000000000     0          
O        O      0.432633333333     0.107233333333     0.792850000000     0          
O        O      0.412566666667     0.158466666667     0.818100000000     0          
O        O      0.446033333333     0.133800000000     0.875000000000     0          
O        O      0.486766666667     0.179900000000     0.808950000000     0          
O        O      0.408333333333     0.037500000000     0.759250000000     0          
T        Si     0.444500000000     0.144833333333     0.823700000000     0          
T        Si     0.413100000000     0.079766666667     0.750000000000     0          
O        O      0.658733333333     0.099300000000     0.542850000000     0          
O        O      0.587433333333     0.079233333333     0.568100000000     0          
O        O      0.645566666667     0.112700000000     0.625000000000     0          
O        O      0.640200000000     0.153433333333     0.558950000000     0          
O        O      0.370833333333     0.075000000000     0.509250000000     0          
T        Si     0.633000000000     0.111166666667     0.573700000000     0          
T        Si     0.333333333333     0.079766666667     0.500000000000     0          
O        O      0.559433333333     0.325400000000     0.792850000000     0          
O        O      0.508200000000     0.254100000000     0.818100000000     0          
O        O      0.532866666667     0.312233333333     0.875000000000     0          
O        O      0.486766666667     0.306866666667     0.808950000000     0          
O        O      0.629166666667     0.037500000000     0.759250000000     0          
T        Si     0.521833333333     0.299666666667     0.823700000000     0          
T        Si     0.586900000000     0.000000000000     0.750000000000     0          
O        O      0.567366666667     0.226100000000     0.542850000000     0          
O        O      0.587433333333     0.174866666667     0.568100000000     0          
O        O      0.553966666667     0.199533333333     0.625000000000     0          
O        O      0.513233333333     0.153433333333     0.558950000000     0          
O        O      0.591666666667     0.295833333333     0.509250000000     0          
T        Si     0.555500000000     0.188500000000     0.573700000000     0          
T        Si     0.586900000000     0.253566666667     0.500000000000     0          
O        O      0.341266666667     0.234033333333     0.792850000000     0          
O        O      0.412566666667     0.254100000000     0.818100000000     0          
O        O      0.354433333333     0.220633333333     0.875000000000     0          
O        O      0.359800000000     0.179900000000     0.808950000000     0          
O        O      0.629166666667     0.258333333333     0.759250000000     0          
T        Si     0.367000000000     0.222166666667     0.823700000000     0          
T        Si     0.333333333333     0.253566666667     0.750000000000     0          
O        O      0.658733333333     0.226100000000     0.707150000000     0          
O        O      0.587433333333     0.174866666667     0.681900000000     0          
O        O      0.645566666667     0.199533333333     0.625000000000     0          
O        O      0.640200000000     0.153433333333     0.691050000000     0          
O        O      0.370833333333     0.295833333333     0.740750000000     0          
T        Si     0.633000000000     0.188500000000     0.676300000000     0          
O        O      0.432633333333     0.325400000000     0.957150000000     0          
O        O      0.412566666667     0.254100000000     0.931900000000     0          
O        O      0.446033333333     0.312233333333     0.875000000000     0          
O        O      0.486766666667     0.306866666667     0.941050000000     0          
O        O      0.408333333333     0.037500000000     0.990750000000     0          
T        Si     0.444500000000     0.299666666667     0.926300000000     0          
O        O      0.440566666667     0.099300000000     0.707150000000     0          
O        O      0.491800000000     0.079233333333     0.681900000000     0          
O        O      0.467133333333     0.112700000000     0.625000000000     0          
O        O      0.513233333333     0.153433333333     0.691050000000     0          
O        O      0.370833333333     0.075000000000     0.740750000000     0          
T        Si     0.478166666667     0.111166666667     0.676300000000     0          
O        O      0.341266666667     0.107233333333     0.957150000000     0          
O        O      0.412566666667     0.158466666667     0.931900000000     0          
O        O      0.354433333333     0.133800000000     0.875000000000     0          
O        O      0.359800000000     0.179900000000     0.941050000000     0          
O        O      0.629166666667     0.037500000000     0.990750000000     0          
T        Si     0.367000000000     0.144833333333     0.926300000000     0          
O        O      0.567366666667     0.007933333333     0.707150000000     0          
O        O      0.587433333333     0.079233333333     0.681900000000     0          
O        O      0.553966666667     0.021100000000     0.625000000000     0          
O        O      0.513233333333     0.026466666667     0.691050000000     0          
O        O      0.591666666667     0.295833333333     0.740750000000     0          
T        Si     0.555500000000     0.033666666667     0.676300000000     0          
O        O      0.559433333333     0.234033333333     0.957150000000     0          
O        O      0.508200000000     0.254100000000     0.931900000000     0          
O        O      0.532866666667     0.220633333333     0.875000000000     0          
O        O      0.486766666667     0.179900000000     0.941050000000     0          
O        O      0.629166666667     0.258333333333     0.990750000000     0          
T        Si     0.521833333333     0.222166666667     0.926300000000     0          
O        O      0.559433333333     0.325400000000     0.957150000000     0          
T        Si     0.521833333333     0.299666666667     0.926300000000     0          
T        Si     0.586900000000     0.000000000000     0.500000000000     0          
O        O      0.567366666667     0.226100000000     0.707150000000     0          
T        Si     0.555500000000     0.188500000000     0.676300000000     0          
T        Si     0.586900000000     0.253566666667     0.750000000000     0          
O        O      0.341266666667     0.234033333333     0.957150000000     0          
T        Si     0.367000000000     0.222166666667     0.926300000000     0          
T        Si     0.333333333333     0.253566666667     0.500000000000     0          
O        O      0.440566666667     0.007933333333     0.707150000000     0          
T        Si     0.478166666667     0.033666666667     0.676300000000     0          
T        Si     0.413100000000     0.000000000000     0.750000000000     0          
O        O      0.432633333333     0.107233333333     0.957150000000     0          
T        Si     0.444500000000     0.144833333333     0.926300000000     0          
T        Si     0.413100000000     0.079766666667     0.500000000000     0          
O        O      0.658733333333     0.099300000000     0.707150000000     0          
T        Si     0.633000000000     0.111166666667     0.676300000000     0          
T        Si     0.333333333333     0.079766666667     0.750000000000     0          
O        O      0.341266666667     0.107233333333     0.792850000000     0          
T        Si     0.367000000000     0.144833333333     0.823700000000     0          
O        O      0.567366666667     0.007933333333     0.542850000000     0          
T        Si     0.555500000000     0.033666666667     0.573700000000     0          
O        O      0.559433333333     0.234033333333     0.792850000000     0          
T        Si     0.521833333333     0.222166666667     0.823700000000     0          
O        O      0.658733333333     0.226100000000     0.542850000000     0          
T        Si     0.633000000000     0.188500000000     0.573700000000     0          
O        O      0.432633333333     0.325400000000     0.792850000000     0          
T        Si     0.444500000000     0.299666666667     0.823700000000     0          
O        O      0.440566666667     0.099300000000     0.542850000000     0          
T        Si     0.478166666667     0.111166666667     0.573700000000     0          
O        O      0.440566666667     0.341266666667     0.042850000000     0          
O        O      0.491800000000     0.412566666667     0.068100000000     0          
O        O      0.467133333333     0.354433333333     0.125000000000     0          
O        O      0.513233333333     0.359800000000     0.058950000000     0          
O        O      0.370833333333     0.629166666667     0.009250000000     0          
T        Si     0.478166666667     0.367000000000     0.073700000000     0          
T        Si     0.413100000000     0.333333333333     0.000000000000     0          
O        O      0.432633333333     0.440566666667     0.292850000000     0          
O        O      0.412566666667     0.491800000000     0.318100000000     0          
O        O      0.446033333333     0.467133333333     0.375000000000     0          
O        O      0.486766666667     0.513233333333     0.308950000000     0          
O        O      0.408333333333     0.370833333333     0.259250000000     0          
T        Si     0.444500000000     0.478166666667     0.323700000000     0          
T        Si     0.413100000000     0.413100000000     0.250000000000     0          
O        O      0.658733333333     0.432633333333     0.042850000000     0          
O        O      0.587433333333     0.412566666667     0.068100000000     0          
O        O      0.645566666667     0.446033333333     0.125000000000     0          
O        O      0.640200000000     0.486766666667     0.058950000000     0          
O        O      0.370833333333     0.408333333333     0.009250000000     0          
T        Si     0.633000000000     0.444500000000     0.073700000000     0          
T        Si     0.333333333333     0.413100000000     0.000000000000     0          
O        O      0.559433333333     0.658733333333     0.292850000000     0          
O        O      0.508200000000     0.587433333333     0.318100000000     0          
O        O      0.532866666667     0.645566666667     0.375000000000     0          
O        O      0.486766666667     0.640200000000     0.308950000000     0          
O        O      0.629166666667     0.370833333333     0.259250000000     0          
T        Si     0.521833333333     0.633000000000     0.323700000000     0          
T        Si     0.586900000000     0.333333333333     0.250000000000     0          
O        O      0.567366666667     0.559433333333     0.042850000000     0          
O        O      0.587433333333     0.508200000000     0.068100000000     0          
O        O      0.553966666667     0.532866666667     0.125000000000     0          
O        O      0.513233333333     0.486766666667     0.058950000000     0          
O        O      0.591666666667     0.629166666667     0.009250000000     0          
T        Si     0.555500000000     0.521833333333     0.073700000000     0          
T        Si     0.586900000000     0.586900000000     0.000000000000     0          
O        O      0.341266666667     0.567366666667     0.292850000000     0          
O        O      0.412566666667     0.587433333333     0.318100000000     0          
O        O      0.354433333333     0.553966666667     0.375000000000     0          
O        O      0.359800000000     0.513233333333     0.308950000000     0          
O        O      0.629166666667     0.591666666667     0.259250000000     0          
T        Si     0.367000000000     0.555500000000     0.323700000000     0          
T        Si     0.333333333333     0.586900000000     0.250000000000     0          
O        O      0.658733333333     0.559433333333     0.207150000000     0          
O        O      0.587433333333     0.508200000000     0.181900000000     0          
O        O      0.645566666667     0.532866666667     0.125000000000     0          
O        O      0.640200000000     0.486766666667     0.191050000000     0          
O        O      0.370833333333     0.629166666667     0.240750000000     0          
T        Si     0.633000000000     0.521833333333     0.176300000000     0          
O        O      0.432633333333     0.658733333333     0.457150000000     0          
O        O      0.412566666667     0.587433333333     0.431900000000     0          
O        O      0.446033333333     0.645566666667     0.375000000000     0          
O        O      0.486766666667     0.640200000000     0.441050000000     0          
O        O      0.408333333333     0.370833333333     0.490750000000     0          
T        Si     0.444500000000     0.633000000000     0.426300000000     0          
O        O      0.440566666667     0.432633333333     0.207150000000     0          
O        O      0.491800000000     0.412566666667     0.181900000000     0          
O        O      0.467133333333     0.446033333333     0.125000000000     0          
O        O      0.513233333333     0.486766666667     0.191050000000     0          
O        O      0.370833333333     0.408333333333     0.240750000000     0          
T        Si     0.478166666667     0.444500000000     0.176300000000     0          
O        O      0.341266666667     0.440566666667     0.457150000000     0          
O        O      0.412566666667     0.491800000000     0.431900000000     0          
O        O      0.354433333333     0.467133333333     0.375000000000     0          
O        O      0.359800000000     0.513233333333     0.441050000000     0          
O        O      0.629166666667     0.370833333333     0.490750000000     0          
T        Si     0.367000000000     0.478166666667     0.426300000000     0          
O        O      0.567366666667     0.341266666667     0.207150000000     0          
O        O      0.587433333333     0.412566666667     0.181900000000     0          
O        O      0.553966666667     0.354433333333     0.125000000000     0          
O        O      0.513233333333     0.359800000000     0.191050000000     0          
O        O      0.591666666667     0.629166666667     0.240750000000     0          
T        Si     0.555500000000     0.367000000000     0.176300000000     0          
O        O      0.559433333333     0.567366666667     0.457150000000     0          
O        O      0.508200000000     0.587433333333     0.431900000000     0          
O        O      0.532866666667     0.553966666667     0.375000000000     0          
O        O      0.486766666667     0.513233333333     0.441050000000     0          
O        O      0.629166666667     0.591666666667     0.490750000000     0          
T        Si     0.521833333333     0.555500000000     0.426300000000     0          
O        O      0.559433333333     0.658733333333     0.457150000000     0          
T        Si     0.521833333333     0.633000000000     0.426300000000     0          
T        Si     0.586900000000     0.333333333333     0.000000000000     0          
O        O      0.567366666667     0.559433333333     0.207150000000     0          
T        Si     0.555500000000     0.521833333333     0.176300000000     0          
T        Si     0.586900000000     0.586900000000     0.250000000000     0          
O        O      0.341266666667     0.567366666667     0.457150000000     0          
T        Si     0.367000000000     0.555500000000     0.426300000000     0          
T        Si     0.333333333333     0.586900000000     0.000000000000     0          
O        O      0.440566666667     0.341266666667     0.207150000000     0          
T        Si     0.478166666667     0.367000000000     0.176300000000     0          
T        Si     0.413100000000     0.333333333333     0.250000000000     0          
O        O      0.432633333333     0.440566666667     0.457150000000     0          
T        Si     0.444500000000     0.478166666667     0.426300000000     0          
T        Si     0.413100000000     0.413100000000     0.000000000000     0          
O        O      0.658733333333     0.432633333333     0.207150000000     0          
T        Si     0.633000000000     0.444500000000     0.176300000000     0          
T        Si     0.333333333333     0.413100000000     0.250000000000     0          
O        O      0.341266666667     0.440566666667     0.292850000000     0          
T        Si     0.367000000000     0.478166666667     0.323700000000     0          
O        O      0.567366666667     0.341266666667     0.042850000000     0          
T        Si     0.555500000000     0.367000000000     0.073700000000     0          
O        O      0.559433333333     0.567366666667     0.292850000000     0          
T        Si     0.521833333333     0.555500000000     0.323700000000     0          
O        O      0.658733333333     0.559433333333     0.042850000000     0          
T        Si     0.633000000000     0.521833333333     0.073700000000     0          
O        O      0.432633333333     0.658733333333     0.292850000000     0          
T        Si     0.444500000000     0.633000000000     0.323700000000     0          
O        O      0.440566666667     0.432633333333     0.042850000000     0          
T        Si     0.478166666667     0.444500000000     0.073700000000     0          
O        O      0.440566666667     0.341266666667     0.542850000000     0          
O        O      0.491800000000     0.412566666667     0.568100000000     0          
O        O      0.467133333333     0.354433333333     0.625000000000     0          
O        O      0.513233333333     0.359800000000     0.558950000000     0          
O        O      0.370833333333     0.629166666667     0.509250000000     0          
T        Si     0.478166666667     0.367000000000     0.573700000000     0          
T        Si     0.413100000000     0.333333333333     0.500000000000     0          
O        O      0.432633333333     0.440566666667     0.792850000000     0          
O        O      0.412566666667     0.491800000000     0.818100000000     0          
O        O      0.446033333333     0.467133333333     0.875000000000     0          
O        O      0.486766666667     0.513233333333     0.808950000000     0          
O        O      0.408333333333     0.370833333333     0.759250000000     0          
T        Si     0.444500000000     0.478166666667     0.823700000000     0          
T        Si     0.413100000000     0.413100000000     0.750000000000     0          
O        O      0.658733333333     0.432633333333     0.542850000000     0          
O        O      0.587433333333     0.412566666667     0.568100000000     0          
O        O      0.645566666667     0.446033333333     0.625000000000     0          
O        O      0.640200000000     0.486766666667     0.558950000000     0          
O        O      0.370833333333     0.408333333333     0.509250000000     0          
T        Si     0.633000000000     0.444500000000     0.573700000000     0          
T        Si     0.333333333333     0.413100000000     0.500000000000     0          
O        O      0.559433333333     0.658733333333     0.792850000000     0          
O        O      0.508200000000     0.587433333333     0.818100000000     0          
O        O      0.532866666667     0.645566666667     0.875000000000     0          
O        O      0.486766666667     0.640200000000     0.808950000000     0          
O        O      0.629166666667     0.370833333333     0.759250000000     0          
T        Si     0.521833333333     0.633000000000     0.823700000000     0          
T        Si     0.586900000000     0.333333333333     0.750000000000     0          
O        O      0.567366666667     0.559433333333     0.542850000000     0          
O        O      0.587433333333     0.508200000000     0.568100000000     0          
O        O      0.553966666667     0.532866666667     0.625000000000     0          
O        O      0.513233333333     0.486766666667     0.558950000000     0          
O        O      0.591666666667     0.629166666667     0.509250000000     0          
T        Si     0.555500000000     0.521833333333     0.573700000000     0          
T        Si     0.586900000000     0.586900000000     0.500000000000     0          
O        O      0.341266666667     0.567366666667     0.792850000000     0          
O        O      0.412566666667     0.587433333333     0.818100000000     0          
O        O      0.354433333333     0.553966666667     0.875000000000     0          
O        O      0.359800000000     0.513233333333     0.808950000000     0          
O        O      0.629166666667     0.591666666667     0.759250000000     0          
T        Si     0.367000000000     0.555500000000     0.823700000000     0          
T        Si     0.333333333333     0.586900000000     0.750000000000     0          
O        O      0.658733333333     0.559433333333     0.707150000000     0          
O        O      0.587433333333     0.508200000000     0.681900000000     0          
O        O      0.645566666667     0.532866666667     0.625000000000     0          
O        O      0.640200000000     0.486766666667     0.691050000000     0          
O        O      0.370833333333     0.629166666667     0.740750000000     0          
T        Si     0.633000000000     0.521833333333     0.676300000000     0          
O        O      0.432633333333     0.658733333333     0.957150000000     0          
O        O      0.412566666667     0.587433333333     0.931900000000     0          
O        O      0.446033333333     0.645566666667     0.875000000000     0          
O        O      0.486766666667     0.640200000000     0.941050000000     0          
O        O      0.408333333333     0.370833333333     0.990750000000     0          
T        Si     0.444500000000     0.633000000000     0.926300000000     0          
O        O      0.440566666667     0.432633333333     0.707150000000     0          
O        O      0.491800000000     0.412566666667     0.681900000000     0          
O        O      0.467133333333     0.446033333333     0.625000000000     0          
O        O      0.513233333333     0.486766666667     0.691050000000     0          
O        O      0.370833333333     0.408333333333     0.740750000000     0          
T        Si     0.478166666667     0.444500000000     0.676300000000     0          
O        O      0.341266666667     0.440566666667     0.957150000000     0          
O        O      0.412566666667     0.491800000000     0.931900000000     0          
O        O      0.354433333333     0.467133333333     0.875000000000     0          
O        O      0.359800000000     0.513233333333     0.941050000000     0          
O        O      0.629166666667     0.370833333333     0.990750000000     0          
T        Si     0.367000000000     0.478166666667     0.926300000000     0          
O        O      0.567366666667     0.341266666667     0.707150000000     0          
O        O      0.587433333333     0.412566666667     0.681900000000     0          
O        O      0.553966666667     0.354433333333     0.625000000000     0          
O        O      0.513233333333     0.359800000000     0.691050000000     0          
O        O      0.591666666667     0.629166666667     0.740750000000     0          
T        Si     0.555500000000     0.367000000000     0.676300000000     0          
O        O      0.559433333333     0.567366666667     0.957150000000     0          
O        O      0.508200000000     0.587433333333     0.931900000000     0          
O        O      0.532866666667     0.553966666667     0.875000000000     0          
O        O      0.486766666667     0.513233333333     0.941050000000     0          
O        O      0.629166666667     0.591666666667     0.990750000000     0          
T        Si     0.521833333333     0.555500000000     0.926300000000     0          
O        O      0.559433333333     0.658733333333     0.957150000000     0          
T        Si     0.521833333333     0.633000000000     0.926300000000     0          
T        Si     0.586900000000     0.333333333333     0.500000000000     0          
O        O      0.567366666667     0.559433333333     0.707150000000     0          
T        Si     0.555500000000     0.521833333333     0.676300000000     0          
T        Si     0.586900000000     0.586900000000     0.750000000000     0          
O        O      0.341266666667     0.567366666667     0.957150000000     0          
T        Si     0.367000000000     0.555500000000     0.926300000000     0          
T        Si     0.333333333333     0.586900000000     0.500000000000     0          
O        O      0.440566666667     0.341266666667     0.707150000000     0          
T        Si     0.478166666667     0.367000000000     0.676300000000     0          
T        Si     0.413100000000     0.333333333333     0.750000000000     0          
O        O      0.432633333333     0.440566666667     0.957150000000     0          
T        Si     0.444500000000     0.478166666667     0.926300000000     0          
T        Si     0.413100000000     0.413100000000     0.500000000000     0          
O        O      0.658733333333     0.432633333333     0.707150000000     0          
T        Si     0.633000000000     0.444500000000     0.676300000000     0          
T        Si     0.333333333333     0.413100000000     0.750000000000     0          
O        O      0.341266666667     0.440566666667     0.792850000000     0          
T        Si     0.367000000000     0.478166666667     0.823700000000     0          
O        O      0.567366666667     0.341266666667     0.542850000000     0          
T        Si     0.555500000000     0.367000000000     0.573700000000     0          
O        O      0.559433333333     0.567366666667     0.792850000000     0          
T        Si     0.521833333333     0.555500000000     0.823700000000     0          
O        O      0.658733333333     0.559433333333     0.542850000000     0          
T        Si     0.633000000000     0.521833333333     0.573700000000     0          
O        O      0.432633333333     0.658733333333     0.792850000000     0          
T        Si     0.444500000000     0.633000000000     0.823700000000     0          
O        O      0.440566666667     0.432633333333     0.542850000000     0          
T        Si     0.478166666667     0.444500000000     0.573700000000     0          
O        O      0.440566666667     0.674600000000     0.042850000000     0          
O        O      0.491800000000     0.745900000000     0.068100000000     0          
O        O      0.467133333333     0.687766666667     0.125000000000     0          
O        O      0.513233333333     0.693133333333     0.058950000000     0          
O        O      0.370833333333     0.962500000000     0.009250000000     0          
T        Si     0.478166666667     0.700333333333     0.073700000000     0          
T        Si     0.413100000000     0.666666666667     0.000000000000     0          
O        O      0.432633333333     0.773900000000     0.292850000000     0          
O        O      0.412566666667     0.825133333333     0.318100000000     0          
O        O      0.446033333333     0.800466666667     0.375000000000     0          
O        O      0.486766666667     0.846566666667     0.308950000000     0          
O        O      0.408333333333     0.704166666667     0.259250000000     0          
T        Si     0.444500000000     0.811500000000     0.323700000000     0          
T        Si     0.413100000000     0.746433333333     0.250000000000     0          
O        O      0.658733333333     0.765966666667     0.042850000000     0          
O        O      0.587433333333     0.745900000000     0.068100000000     0          
O        O      0.645566666667     0.779366666667     0.125000000000     0          
O        O      0.640200000000     0.820100000000     0.058950000000     0          
O        O      0.370833333333     0.741666666667     0.009250000000     0          
T        Si     0.633000000000     0.777833333333     0.073700000000     0          
T        Si     0.333333333333     0.746433333333     0.000000000000     0          
O        O      0.559433333333     0.992066666667     0.292850000000     0          
O        O      0.508200000000     0.920766666667     0.318100000000     0          
O        O      0.532866666667     0.978900000000     0.375000000000     0          
O        O      0.486766666667     0.973533333333     0.308950000000     0          
O        O      0.629166666667     0.704166666667     0.259250000000     0          
T        Si     0.521833333333     0.966333333333     0.323700000000     0          
T        Si     0.586900000000     0.666666666667     0.250000000000     0          
O        O      0.567366666667     0.892766666667     0.042850000000     0          
O        O      0.587433333333     0.841533333333     0.068100000000     0          
O        O      0.553966666667     0.866200000000     0.125000000000     0          
O        O      0.513233333333     0.820100000000     0.058950000000     0          
O        O      0.591666666667     0.962500000000     0.009250000000     0          
T        Si     0.555500000000     0.855166666667     0.073700000000     0          
T        Si     0.586900000000     0.920233333333     0.000000000000     0          
O        O      0.341266666667     0.900700000000     0.292850000000     0          
O        O      0.412566666667     0.920766666667     0.318100000000     0          
O        O      0.354433333333     0.887300000000     0.375000000000     0          
O        O      0.359800000000     0.846566666667     0.308950000000     0          
O        O      0.629166666667     0.925000000000     0.259250000000     0          
T        Si     0.367000000000     0.888833333333     0.323700000000     0          
T        Si     0.333333333333     0.920233333333     0.250000000000     0          
O        O      0.658733333333     0.892766666667     0.207150000000     0          
O        O      0.587433333333     0.841533333333     0.181900000000     0          
O        O      0.645566666667     0.866200000000     0.125000000000     0          
O        O      0.640200000000     0.820100000000     0.191050000000     0          
O        O      0.370833333333     0.962500000000     0.240750000000     0          
T        Si     0.633000000000     0.855166666667     0.176300000000     0          
O        O      0.432633333333     0.992066666667     0.457150000000     0          
O        O      0.412566666667     0.920766666667     0.431900000000     0          
O        O      0.446033333333     0.978900000000     0.375000000000     0          
O        O      0.486766666667     0.973533333333     0.441050000000     0          
O        O      0.408333333333     0.704166666667     0.490750000000     0          
T        Si     0.444500000000     0.966333333333     0.426300000000     0          
O        O      0.440566666667     0.765966666667     0.207150000000     0          
O        O      0.491800000000     0.745900000000     0.181900000000     0          
O        O      0.467133333333     0.779366666667     0.125000000000     0          
O        O      0.513233333333     0.820100000000     0.191050000000     0          
O        O      0.370833333333     0.741666666667     0.240750000000     0          
T        Si     0.478166666667     0.777833333333     0.176300000000     0          
O        O      0.341266666667     0.773900000000     0.457150000000     0          
O        O      0.412566666667     0.825133333333     0.431900000000     0          
O        O      0.354433333333     0.800466666667     0.375000000000     0          
O        O      0.359800000000     0.846566666667     0.441050000000     0          
O        O      0.629166666667     0.704166666667     0.490750000000     0          
T        Si     0.367000000000     0.811500000000     0.426300000000     0          
O        O      0.567366666667     0.674600000000     0.207150000000     0          
O        O      0.587433333333     0.745900000000     0.181900000000     0          
O        O      0.553966666667     0.687766666667     0.125000000000     0          
O        O      0.513233333333     0.693133333333     0.191050000000     0          
O        O      0.591666666667     0.962500000000     0.240750000000     0          
T        Si     0.555500000000     0.700333333333     0.176300000000     0          
O        O      0.559433333333     0.900700000000     0.457150000000     0          
O        O      0.508200000000     0.920766666667     0.431900000000     0          
O        O      0.532866666667     0.887300000000     0.375000000000     0          
O        O      0.486766666667     0.846566666667     0.441050000000     0          
O        O      0.629166666667     0.925000000000     0.490750000000     0          
T        Si     0.521833333333     0.888833333333     0.426300000000     0          
O        O      0.559433333333     0.992066666667     0.457150000000     0          
T        Si     0.521833333333     0.966333333333     0.426300000000     0          
T        Si     0.586900000000     0.666666666667     0.000000000000     0          
O        O      0.567366666667     0.892766666667     0.207150000000     0          
T        Si     0.555500000000     0.855166666667     0.176300000000     0          
T        Si     0.586900000000     0.920233333333     0.250000000000     0          
O        O      0.341266666667     0.900700000000     0.457150000000     0          
T        Si     0.367000000000     0.888833333333     0.426300000000     0          
T        Si     0.333333333333     0.920233333333     0.000000000000     0          
O        O      0.440566666667     0.674600000000     0.207150000000     0          
T        Si     0.478166666667     0.700333333333     0.176300000000     0          
T        Si     0.413100000000     0.666666666667     0.250000000000     0          
O        O      0.432633333333     0.773900000000     0.457150000000     0          
T        Si     0.444500000000     0.811500000000     0.426300000000     0          
T        Si     0.413100000000     0.746433333333     0.000000000000     0          
O        O      0.658733333333     0.765966666667     0.207150000000     0          
T        Si     0.633000000000     0.777833333333     0.176300000000     0          
T        Si     0.333333333333     0.746433333333     0.250000000000     0          
O        O      0.341266666667     0.773900000000     0.292850000000     0          
T        Si     0.367000000000     0.811500000000     0.323700000000     0          
O        O      0.567366666667     0.674600000000     0.042850000000     0          
T        Si     0.555500000000     0.700333333333     0.073700000000     0          
O        O      0.559433333333     0.900700000000     0.292850000000     0          
T        Si     0.521833333333     0.888833333333     0.323700000000     0          
O        O      0.658733333333     0.892766666667     0.042850000000     0          
T        Si     0.633000000000     0.855166666667     0.073700000000     0          
O        O      0.432633333333     0.992066666667     0.292850000000     0          
T        Si     0.444500000000     0.966333333333     0.323700000000     0          
O        O      0.440566666667     0.765966666667     0.042850000000     0          
T        Si     0.478166666667     0.777833333333     0.073700000000     0          
O        O      0.440566666667     0.674600000000     0.542850000000     0          
O        O      0.491800000000     0.745900000000     0.568100000000     0          
O        O      0.467133333333     0.687766666667     0.625000000000     0          
O        O      0.513233333333     0.693133333333     0.558950000000     0          
O        O      0.370833333333     0.962500000000     0.509250000000     0          
T        Si     0.478166666667     0.700333333333     0.573700000000     0          
T        Si     0.413100000000     0.666666666667     0.500000000000     0          
O        O      0.432633333333     0.773900000000     0.792850000000     0          
O        O      0.412566666667     0.825133333333     0.818100000000     0          
O        O      0.446033333333     0.800466666667     0.875000000000     0          
O        O      0.486766666667     0.846566666667     0.808950000000     0          
O        O      0.408333333333     0.704166666667     0.759250000000     0          
T        Si     0.444500000000     0.811500000000     0.823700000000     0          
T        Si     0.413100000000     0.746433333333     0.750000000000     0          
O        O      0.658733333333     0.765966666667     0.542850000000     0          
O        O      0.587433333333     0.745900000000     0.568100000000     0          
O        O      0.645566666667     0.779366666667     0.625000000000     0          
O        O      0.640200000000     0.820100000000     0.558950000000     0          
O        O      0.370833333333     0.741666666667     0.509250000000     0          
T        Si     0.633000000000     0.777833333333     0.573700000000     0          
T        Si     0.333333333333     0.746433333333     0.500000000000     0          
O        O      0.559433333333     0.992066666667     0.792850000000     0          
O        O      0.508200000000     0.920766666667     0.818100000000     0          
O        O      0.532866666667     0.978900000000     0.875000000000     0          
O        O      0.486766666667     0.973533333333     0.808950000000     0          
O        O      0.629166666667     0.704166666667     0.759250000000     0          
T        Si     0.521833333333     0.966333333333     0.823700000000     0          
T        Si     0.586900000000     0.666666666667     0.750000000000     0          
O        O      0.567366666667     0.892766666667     0.542850000000     0          
O        O      0.587433333333     0.841533333333     0.568100000000     0          
O        O      0.553966666667     0.866200000000     0.625000000000     0          
O        O      0.513233333333     0.820100000000     0.558950000000     0          
O        O      0.591666666667     0.962500000000     0.509250000000     0          
T        Si     0.555500000000     0.855166666667     0.573700000000     0          
T        Si     0.586900000000     0.920233333333     0.500000000000     0          
O        O      0.341266666667     0.900700000000     0.792850000000     0          
O        O      0.412566666667     0.920766666667     0.818100000000     0          
O        O      0.354433333333     0.887300000000     0.875000000000     0          
O        O      0.359800000000     0.846566666667     0.808950000000     0          
O        O      0.629166666667     0.925000000000     0.759250000000     0          
T        Si     0.367000000000     0.888833333333     0.823700000000     0          
T        Si     0.333333333333     0.920233333333     0.750000000000     0          
O        O      0.658733333333     0.892766666667     0.707150000000     0          
O        O      0.587433333333     0.841533333333     0.681900000000     0          
O        O      0.645566666667     0.866200000000     0.625000000000     0          
O        O      0.640200000000     0.820100000000     0.691050000000     0          
O        O      0.370833333333     0.962500000000     0.740750000000     0          
T        Si     0.633000000000     0.855166666667     0.676300000000     0          
O        O      0.432633333333     0.992066666667     0.957150000000     0          
O        O      0.412566666667     0.920766666667     0.931900000000     0          
O        O      0.446033333333     0.978900000000     0.875000000000     0          
O        O      0.486766666667     0.973533333333     0.941050000000     0          
O        O      0.408333333333     0.704166666667     0.990750000000     0          
T        Si     0.444500000000     0.966333333333     0.926300000000     0          
O        O      0.440566666667     0.765966666667     0.707150000000     0          
O        O      0.491800000000     0.745900000000     0.681900000000     0          
O        O      0.467133333333     0.779366666667     0.625000000000     0          
O        O      0.513233333333     0.820100000000     0.691050000000     0          
O        O      0.370833333333     0.741666666667     0.740750000000     0          
T        Si     0.478166666667     0.777833333333     0.676300000000     0          
O        O      0.341266666667     0.773900000000     0.957150000000     0          
O        O      0.412566666667     0.825133333333     0.931900000000     0          
O        O      0.354433333333     0.800466666667     0.875000000000     0          
O        O      0.359800000000     0.846566666667     0.941050000000     0          
O        O      0.629166666667     0.704166666667     0.990750000000     0          
T        Si     0.367000000000     0.811500000000     0.926300000000     0          
O        O      0.567366666667     0.674600000000     0.707150000000     0          
O        O      0.587433333333     0.745900000000     0.681900000000     0          
O        O      0.553966666667     0.687766666667     0.625000000000     0          
O        O      0.513233333333     0.693133333333     0.691050000000     0          
O        O      0.591666666667     0.962500000000     0.740750000000     0          
T        Si     0.555500000000     0.700333333333     0.676300000000     0          
O        O      0.559433333333     0.900700000000     0.957150000000     0          
O        O      0.508200000000     0.920766666667     0.931900000000     0          
O        O      0.532866666667     0.887300000000     0.875000000000     0          
O        O      0.486766666667     0.846566666667     0.941050000000     0          
O        O      0.629166666667     0.925000000000     0.990750000000     0          
T        Si     0.521833333333     0.888833333333     0.926300000000     0          
O        O      0.559433333333     0.992066666667     0.957150000000     0          
T        Si     0.521833333333     0.966333333333     0.926300000000     0          
T        Si     0.586900000000     0.666666666667     0.500000000000     0          
O        O      0.567366666667     0.892766666667     0.707150000000     0          
T        Si     0.555500000000     0.855166666667     0.676300000000     0          
T        Si     0.586900000000     0.920233333333     0.750000000000     0          
O        O      0.341266666667     0.900700000000     0.957150000000     0          
T        Si     0.367000000000     0.888833333333     0.926300000000     0          
T        Si     0.333333333333     0.920233333333     0.500000000000     0          
O        O      0.440566666667     0.674600000000     0.707150000000     0          
T        Si     0.478166666667     0.700333333333     0.676300000000     0          
T        Si     0.413100000000     0.666666666667     0.750000000000     0          
O        O      0.432633333333     0.773900000000     0.957150000000     0          
T        Si     0.444500000000     0.811500000000     0.926300000000     0          
T        Si     0.413100000000     0.746433333333     0.500000000000     0          
O        O      0.658733333333     0.765966666667     0.707150000000     0          
T        Si     0.633000000000     0.777833333333     0.676300000000     0          
T        Si     0.333333333333     0.746433333333     0.750000000000     0          
O        O      0.341266666667     0.773900000000     0.792850000000     0          
T        Si     0.367000000000     0.811500000000     0.823700000000     0          
O        O      0.567366666667     0.674600000000     0.542850000000     0          
T        Si     0.555500000000     0.700333333333     0.573700000000     0          
O        O      0.559433333333     0.900700000000     0.792850000000     0          
T        Si     0.521833333333     0.888833333333     0.823700000000     0          
O        O      0.658733333333     0.892766666667     0.542850000000     0          
T        Si     0.633000000000     0.855166666667     0.573700000000     0          
O        O      0.432633333333     0.992066666667     0.792850000000     0          
T        Si     0.444500000000     0.966333333333     0.823700000000     0          
O        O      0.440566666667     0.765966666667     0.542850000000     0          
T        Si     0.478166666667     0.777833333333     0.573700000000     0          
O        O      0.773900000000     0.007933333333     0.042850000000     0          
O        O      0.825133333333     0.079233333333     0.068100000000     0          
O        O      0.800466666667     0.021100000000     0.125000000000     0          
O        O      0.846566666667     0.026466666667     0.058950000000     0          
O        O      0.704166666667     0.295833333333     0.009250000000     0          
T        Si     0.811500000000     0.033666666667     0.073700000000     0          
T        Si     0.746433333333     0.000000000000     0.000000000000     0          
O        O      0.765966666667     0.107233333333     0.292850000000     0          
O        O      0.745900000000     0.158466666667     0.318100000000     0          
O        O      0.779366666667     0.133800000000     0.375000000000     0          
O        O      0.820100000000     0.179900000000     0.308950000000     0          
O        O      0.741666666667     0.037500000000     0.259250000000     0          
T        Si     0.777833333333     0.144833333333     0.323700000000     0          
T        Si     0.746433333333     0.079766666667     0.250000000000     0          
O        O      0.992066666667     0.099300000000     0.042850000000     0          
O        O      0.920766666667     0.079233333333     0.068100000000     0          
O        O      0.978900000000     0.112700000000     0.125000000000     0          
O        O      0.973533333333     0.153433333333     0.058950000000     0          
O        O      0.704166666667     0.075000000000     0.009250000000     0          
T        Si     0.966333333333     0.111166666667     0.073700000000     0          
T        Si     0.666666666667     0.079766666667     0.000000000000     0          
O        O      0.892766666667     0.325400000000     0.292850000000     0          
O        O      0.841533333333     0.254100000000     0.318100000000     0          
O        O      0.866200000000     0.312233333333     0.375000000000     0          
O        O      0.820100000000     0.306866666667     0.308950000000     0          
O        O      0.962500000000     0.037500000000     0.259250000000     0          
T        Si     0.855166666667     0.299666666667     0.323700000000     0          
T        Si     0.920233333333     0.000000000000     0.250000000000     0          
O        O      0.900700000000     0.226100000000     0.042850000000     0          
O        O      0.920766666667     0.174866666667     0.068100000000     0          
O        O      0.887300000000     0.199533333333     0.125000000000     0          
O        O      0.846566666667     0.153433333333     0.058950000000     0          
O        O      0.925000000000     0.295833333333     0.009250000000     0          
T        Si     0.888833333333     0.188500000000     0.073700000000     0          
T        Si     0.920233333333     0.253566666667     0.000000000000     0          
O        O      0.674600000000     0.234033333333     0.292850000000     0          
O        O      0.745900000000     0.254100000000     0.318100000000     0          
O        O      0.687766666667     0.220633333333     0.375000000000     0          
O        O      0.693133333333     0.179900000000     0.308950000000     0          
O        O      0.962500000000     0.258333333333     0.259250000000     0          
T        Si     0.700333333333     0.222166666667     0.323700000000     0          
T        Si     0.666666666667     0.253566666667     0.250000000000     0          
O        O      0.992066666667     0.226100000000     0.207150000000     0          
O        O      0.920766666667     0.174866666667     0.181900000000     0          
O        O      0.978900000000     0.199533333333     0.125000000000     0          
O        O      0.973533333333     0.153433333333     0.191050000000     0          
O        O      0.704166666667     0.295833333333     0.240750000000     0          
T        Si     0.966333333333     0.188500000000     0.176300000000     0          
O        O      0.765966666667     0.325400000000     0.457150000000     0          
O        O      0.745900000000     0.254100000000     0.431900000000     0          
O        O      0.779366666667     0.312233333333     0.375000000000     0          
O        O      0.820100000000     0.306866666667     0.441050000000     0          
O        O      0.741666666667     0.037500000000     0.490750000000     0          
T        Si     0.777833333333     0.299666666667     0.426300000000     0          
O        O      0.773900000000     0.099300000000     0.207150000000     0          
O        O      0.825133333333     0.079233333333     0.181900000000     0          
O        O      0.800466666667     0.112700000000     0.125000000000     0          
O        O      0.846566666667     0.153433333333     0.191050000000     0          
O        O      0.704166666667     0.075000000000     0.240750000000     0          
T        Si     0.811500000000     0.111166666667     0.176300000000     0          
O        O      0.674600000000     0.107233333333     0.457150000000     0          
O        O      0.745900000000     0.158466666667     0.431900000000     0          
O        O      0.687766666667     0.133800000000     0.375000000000     0          
O        O      0.693133333333     0.179900000000     0.441050000000     0          
O        O      0.962500000000     0.037500000000     0.490750000000     0          
T        Si     0.700333333333     0.144833333333     0.426300000000     0          
O        O      0.900700000000     0.007933333333     0.207150000000     0          
O        O      0.920766666667     0.079233333333     0.181900000000     0          
O        O      0.887300000000     0.021100000000     0.125000000000     0          
O        O      0.846566666667     0.026466666667     0.191050000000     0          
O        O      0.925000000000     0.295833333333     0.240750000000     0          
T        Si     0.888833333333     0.033666666667     0.176300000000     0          
O        O      0.892766666667     0.234033333333     0.457150000000     0          
O        O      0.841533333333     0.254100000000     0.431900000000     0          
O        O      0.866200000000     0.220633333333     0.375000000000     0          
O        O      0.820100000000     0.179900000000     0.441050000000     0          
O        O      0.962500000000     0.258333333333     0.490750000000     0          
T        Si     0.855166666667     0.222166666667     0.426300000000     0          
O        O      0.892766666667     0.325400000000     0.457150000000     0          
T        Si     0.855166666667     0.299666666667     0.426300000000     0          
T        Si     0.920233333333     0.000000000000     0.000000000000     0          
O        O      0.900700000000     0.226100000000     0.207150000000     0          
T        Si     0.888833333333     0.188500000000     0.176300000000     0          
T        Si     0.920233333333     0.253566666667     0.250000000000     0          
O        O      0.674600000000     0.234033333333     0.457150000000     0          
T        Si     0.700333333333     0.222166666667     0.426300000000     0          
T        Si     0.666666666667     0.253566666667     0.000000000000     0          
O        O      0.773900000000     0.007933333333     0.207150000000     0          
T        Si     0.811500000000     0.033666666667     0.176300000000     0          
T        Si     0.746433333333     0.000000000000     0.250000000000     0          
O        O      0.765966666667     0.107233333333     0.457150000000     0          
T        Si     0.777833333333     0.144833333333     0.426300000000     0          
T        Si     0.746433333333     0.079766666667     0.000000000000     0          
O        O      0.992066666667     0.099300000000     0.207150000000     0          
T        Si     0.966333333333     0.111166666667     0.176300000000     0          
T        Si     0.666666666667     0.079766666667     0.250000000000     0          
O        O      0.674600000000     0.107233333333     0.292850000000     0          
T        Si     0.700333333333     0.144833333333     0.323700000000     0          
O        O      0.900700000000     0.007933333333     0.042850000000     0          
T        Si     0.888833333333     0.033666666667     0.073700000000     0          
O        O      0.892766666667     0.234033333333     0.292850000000     0          
T        Si     0.855166666667     0.222166666667     0.323700000000     0          
O        O      0.992066666667     0.226100000000     0.042850000000     0          
T        Si     0.966333333333     0.188500000000     0.073700000000     0          
O        O      0.765966666667     0.325400000000     0.292850000000     0          
T        Si     0.777833333333     0.299666666667     0.323700000000     0          
O        O      0.773900000000     0.099300000000     0.042850000000     0          
T        Si     0.811500000000     0.111166666667     0.073700000000     0          
O        O      0.773900000000     0.007933333333     0.542850000000     0          
O        O      0.825133333333     0.079233333333     0.568100000000     0          
O        O      0.800466666667     0.021100000000     0.625000000000     0          
O        O      0.846566666667     0.026466666667     0.558950000000     0          
O        O      0.704166666667     0.295833333333     0.509250000000     0          
T        Si     0.811500000000     0.033666666667     0.573700000000     0          
T        Si     0.746433333333     0.000000000000     0.500000000000     0          
O        O      0.765966666667     0.107233333333     0.792850000000     0          
O        O      0.745900000000     0.158466666667     0.818100000000     0          
O        O      0.779366666667     0.133800000000     0.875000000000     0          
O        O      0.820100000000     0.179900000000     0.808950000000     0          
O        O      0.741666666667     0.037500000000     0.759250000000     0          
T        Si     0.777833333333     0.144833333333     0.823700000000     0          
T        Si     0.746433333333     0.079766666667     0.750000000000     0          
O        O      0.992066666667     0.099300000000     0.542850000000     0          
O        O      0.920766666667     0.079233333333     0.568100000000     0          
O        O      0.978900000000     0.112700000000     0.625000000000     0          
O        O      0.973533333333     0.153433333333     0.558950000000     0          
O        O      0.704166666667     0.075000000000     0.509250000000     0          
T        Si     0.966333333333     0.111166666667     0.573700000000     0          
T        Si     0.666666666667     0.079766666667     0.500000000000     0          
O        O      0.892766666667     0.325400000000     0.792850000000     0          
O        O      0.841533333333     0.254100000000     0.818100000000     0          
O        O      0.866200000000     0.312233333333     0.875000000000     0          
O        O      0.820100000000     0.306866666667     0.808950000000     0          
O        O      0.962500000000     0.037500000000     0.759250000000     0          
T        Si     0.855166666667     0.299666666667     0.823700000000     0          
T        Si     0.920233333333     0.000000000000     0.750000000000     0          
O        O      0.900700000000     0.226100000000     0.542850000000     0          
O        O      0.920766666667     0.174866666667     0.568100000000     0          
O        O      0.887300000000     0.199533333333     0.625000000000     0          
O        O      0.846566666667     0.153433333333     0.558950000000     0          
O        O      0.925000000000     0.295833333333     0.509250000000     0          
T        Si     0.888833333333     0.188500000000     0.573700000000     0          
T        Si     0.920233333333     0.253566666667     0.500000000000     0          
O        O      0.674600000000     0.234033333333     0.792850000000     0          
O        O      0.745900000000     0.254100000000     0.818100000000     0          
O        O      0.687766666667     0.220633333333     0.875000000000     0          
O        O      0.693133333333     0.179900000000     0.808950000000     0          
O        O      0.962500000000     0.258333333333     0.759250000000     0          
T        Si     0.700333333333     0.222166666667     0.823700000000     0          
T        Si     0.666666666667     0.253566666667     0.750000000000     0          
O        O      0.992066666667     0.226100000000     0.707150000000     0          
O        O      0.920766666667     0.174866666667     0.681900000000     0          
O        O      0.978900000000     0.199533333333     0.625000000000     0          
O        O      0.973533333333     0.153433333333     0.691050000000     0          
O        O      0.704166666667     0.295833333333     0.740750000000     0          
T        Si     0.966333333333     0.188500000000     0.676300000000     0          
O        O      0.765966666667     0.325400000000     0.957150000000     0          
O        O      0.745900000000     0.254100000000     0.931900000000     0          
O        O      0.779366666667     0.312233333333     0.875000000000     0          
O        O      0.820100000000     0.306866666667     0.941050000000     0          
O        O      0.741666666667     0.037500000000     0.990750000000     0          
T        Si     0.777833333333     0.299666666667     0.926300000000     0          
O        O      0.773900000000     0.099300000000     0.707150000000     0          
O        O      0.825133333333     0.079233333333     0.681900000000     0          
O        O      0.800466666667     0.112700000000     0.625000000000     0          
O        O      0.846566666667     0.153433333333     0.691050000000     0          
O        O      0.704166666667     0.075000000000     0.740750000000     0          
T        Si     0.811500000000     0.111166666667     0.676300000000     0          
O        O      0.674600000000     0.107233333333     0.957150000000     0          
O        O      0.745900000000     0.158466666667     0.931900000000     0          
O        O      0.687766666667     0.133800000000     0.875000000000     0          
O        O      0.693133333333     0.179900000000     0.941050000000     0          
O        O      0.962500000000     0.037500000000     0.990750000000     0          
T        Si     0.700333333333     0.144833333333     0.926300000000     0          
O        O      0.900700000000     0.007933333333     0.707150000000     0          
O        O      0.920766666667     0.079233333333     0.681900000000     0          
O        O      0.887300000000     0.021100000000     0.625000000000     0          
O        O      0.846566666667     0.026466666667     0.691050000000     0          
O        O      0.925000000000     0.295833333333     0.740750000000     0          
T        Si     0.888833333333     0.033666666667     0.676300000000     0          
O        O      0.892766666667     0.234033333333     0.957150000000     0          
O        O      0.841533333333     0.254100000000     0.931900000000     0          
O        O      0.866200000000     0.220633333333     0.875000000000     0          
O        O      0.820100000000     0.179900000000     0.941050000000     0          
O        O      0.962500000000     0.258333333333     0.990750000000     0          
T        Si     0.855166666667     0.222166666667     0.926300000000     0          
O        O      0.892766666667     0.325400000000     0.957150000000     0          
T        Si     0.855166666667     0.299666666667     0.926300000000     0          
T        Si     0.920233333333     0.000000000000     0.500000000000     0          
O        O      0.900700000000     0.226100000000     0.707150000000     0          
T        Si     0.888833333333     0.188500000000     0.676300000000     0          
T        Si     0.920233333333     0.253566666667     0.750000000000     0          
O        O      0.674600000000     0.234033333333     0.957150000000     0          
T        Si     0.700333333333     0.222166666667     0.926300000000     0          
T        Si     0.666666666667     0.253566666667     0.500000000000     0          
O        O      0.773900000000     0.007933333333     0.707150000000     0          
T        Si     0.811500000000     0.033666666667     0.676300000000     0          
T        Si     0.746433333333     0.000000000000     0.750000000000     0          
O        O      0.765966666667     0.107233333333     0.957150000000     0          
T        Si     0.777833333333     0.144833333333     0.926300000000     0          
T        Si     0.746433333333     0.079766666667     0.500000000000     0          
O        O      0.992066666667     0.099300000000     0.707150000000     0          
T        Si     0.966333333333     0.111166666667     0.676300000000     0          
T        Si     0.666666666667     0.079766666667     0.750000000000     0          
O        O      0.674600000000     0.107233333333     0.792850000000     0          
T        Si     0.700333333333     0.144833333333     0.823700000000     0          
O        O      0.900700000000     0.007933333333     0.542850000000     0          
T        Si     0.888833333333     0.033666666667     0.573700000000     0          
O        O      0.892766666667     0.234033333333     0.792850000000     0          
T        Si     0.855166666667     0.222166666667     0.823700000000     0          
O        O      0.992066666667     0.226100000000     0.542850000000     0          
T        Si     0.966333333333     0.188500000000     0.573700000000     0          
O        O      0.765966666667     0.325400000000     0.792850000000     0          
T        Si     0.777833333333     0.299666666667     0.823700000000     0          
O        O      0.773900000000     0.099300000000     0.542850000000     0          
T        Si     0.811500000000     0.111166666667     0.573700000000     0          
O        O      0.773900000000     0.341266666667     0.042850000000     0          
O        O      0.825133333333     0.412566666667     0.068100000000     0          
O        O      0.800466666667     0.354433333333     0.125000000000     0          
O        O      0.846566666667     0.359800000000     0.058950000000     0          
O        O      0.704166666667     0.629166666667     0.009250000000     0          
T        Si     0.811500000000     0.367000000000     0.073700000000     0          
T        Si     0.746433333333     0.333333333333     0.000000000000     0          
O        O      0.765966666667     0.440566666667     0.292850000000     0          
O        O      0.745900000000     0.491800000000     0.318100000000     0          
O        O      0.779366666667     0.467133333333     0.375000000000     0          
O        O      0.820100000000     0.513233333333     0.308950000000     0          
O        O      0.741666666667     0.370833333333     0.259250000000     0          
T        Si     0.777833333333     0.478166666667     0.323700000000     0          
T        Si     0.746433333333     0.413100000000     0.250000000000     0          
O        O      0.992066666667     0.432633333333     0.042850000000     0          
O        O      0.920766666667     0.412566666667     0.068100000000     0          
O        O      0.978900000000     0.446033333333     0.125000000000     0          
O        O      0.973533333333     0.486766666667     0.058950000000     0          
O        O      0.704166666667     0.408333333333     0.009250000000     0          
T        Si     0.966333333333     0.444500000000     0.073700000000     0          
T        Si     0.666666666667     0.413100000000     0.000000000000     0          
O        O      0.892766666667     0.658733333333     0.292850000000     0          
O        O      0.841533333333     0.587433333333     0.318100000000     0          
O        O      0.866200000000     0.645566666667     0.375000000000     0          
O        O      0.820100000000     0.640200000000     0.308950000000     0          
O        O      0.962500000000     0.370833333333     0.259250000000     0          
T        Si     0.855166666667     0.633000000000     0.323700000000     0          
T        Si     0.920233333333     0.333333333333     0.250000000000     0          
O        O      0.900700000000     0.559433333333     0.042850000000     0          
O        O      0.920766666667     0.508200000000     0.068100000000     0          
O        O      0.887300000000     0.532866666667     0.125000000000     0          
O        O      0.846566666667     0.486766666667     0.058950000000     0          
O        O      0.925000000000     0.629166666667     0.009250000000     0          
T        Si     0.888833333333     0.521833333333     0.073700000000     0          
T        Si     0.920233333333     0.586900000000     0.000000000000     0          
O        O      0.674600000000     0.567366666667     0.292850000000     0          
O        O      0.745900000000     0.587433333333     0.318100000000     0          
O        O      0.687766666667     0.553966666667     0.375000000000     0          
O        O      0.693133333333     0.513233333333     0.308950000000     0          
O        O      0.962500000000     0.591666666667     0.259250000000     0          
T        Si     0.700333333333     0.555500000000     0.323700000000     0          
T        Si     0.666666666667     0.586900000000     0.250000000000     0          
O        O      0.992066666667     0.559433333333     0.207150000000     0          
O        O      0.920766666667     0.508200000000     0.181900000000     0          
O        O      0.978900000000     0.532866666667     0.125000000000     0          
O        O      0.973533333333     0.486766666667     0.191050000000     0          
O        O      0.704166666667     0.629166666667     0.240750000000     0          
T        Si     0.966333333333     0.521833333333     0.176300000000     0          
O        O      0.765966666667     0.658733333333     0.457150000000     0          
O        O      0.745900000000     0.587433333333     0.431900000000     0          
O        O      0.779366666667     0.645566666667     0.375000000000     0          
O        O      0.820100000000     0.640200000000     0.441050000000     0          
O        O      0.741666666667     0.370833333333     0.490750000000     0          
T        Si     0.777833333333     0.633000000000     0.426300000000     0          
O        O      0.773900000000     0.432633333333     0.207150000000     0          
O        O      0.825133333333     0.412566666667     0.181900000000     0          
O        O      0.800466666667     0.446033333333     0.125000000000     0          
O        O      0.846566666667     0.486766666667     0.191050000000     0          
O        O      0.704166666667     0.408333333333     0.240750000000     0          
T        Si     0.811500000000     0.444500000000     0.176300000000     0          
O        O      0.674600000000     0.440566666667     0.457150000000     0          
O        O      0.745900000000     0.491800000000     0.431900000000     0          
O        O      0.687766666667     0.467133333333     0.375000000000     0          
O        O      0.693133333333     0.513233333333     0.441050000000     0          
O        O      0.962500000000     0.370833333333     0.490750000000     0          
T        Si     0.700333333333     0.478166666667     0.426300000000     0          
O        O      0.900700000000     0.341266666667     0.207150000000     0          
O        O      0.920766666667     0.412566666667     0.181900000000     0          
O        O      0.887300000000     0.354433333333     0.125000000000     0          
O        O      0.846566666667     0.359800000000     0.191050000000     0          
O        O      0.925000000000     0.629166666667     0.240750000000     0          
T        Si     0.888833333333     0.367000000000     0.176300000000     0          
O        O      0.892766666667     0.567366666667     0.457150000000     0          
O        O      0.841533333333     0.587433333333     0.431900000000     0          
O        O      0.866200000000     0.553966666667     0.375000000000     0          
O        O      0.820100000000     0.513233333333     0.441050000000     0          
O        O      0.962500000000     0.591666666667     0.490750000000     0          
T        Si     0.855166666667     0.555500000000     0.426300000000     0          
O        O      0.892766666667     0.658733333333     0.457150000000     0          
T        Si     0.855166666667     0.633000000000     0.426300000000     0          
T        Si     0.920233333333     0.333333333333     0.000000000000     0          
O        O      0.900700000000     0.559433333333     0.207150000000     0          
T        Si     0.888833333333     0.521833333333     0.176300000000     0          
T        Si     0.920233333333     0.586900000000     0.250000000000     0          
O        O      0.674600000000     0.567366666667     0.457150000000     0          
T        Si     0.700333333333     0.555500000000     0.426300000000     0          
T        Si     0.666666666667     0.586900000000     0.000000000000     0          
O        O      0.773900000000     0.341266666667     0.207150000000     0          
T        Si     0.811500000000     0.367000000000     0.176300000000     0          
T        Si     0.746433333333     0.333333333333     0.250000000000     0          
O        O      0.765966666667     0.440566666667     0.457150000000     0          
T        Si     0.777833333333     0.478166666667     0.426300000000     0          
T        Si     0.746433333333     0.413100000000     0.000000000000     0          
O        O      0.992066666667     0.432633333333     0.207150000000     0          
T        Si     0.966333333333     0.444500000000     0.176300000000     0          
T        Si     0.666666666667     0.413100000000     0.250000000000     0          
O        O      0.674600000000     0.440566666667     0.292850000000     0          
T        Si     0.700333333333     0.478166666667     0.323700000000     0          
O        O      0.900700000000     0.341266666667     0.042850000000     0          
T        Si     0.888833333333     0.367000000000     0.073700000000     0          
O        O      0.892766666667     0.567366666667     0.292850000000     0          
T        Si     0.855166666667     0.555500000000     0.323700000000     0          
O        O      0.992066666667     0.559433333333     0.042850000000     0          
T        Si     0.966333333333     0.521833333333     0.073700000000     0          
O        O      0.765966666667     0.658733333333     0.292850000000     0          
T        Si     0.777833333333     0.633000000000     0.323700000000     0          
O        O      0.773900000000     0.432633333333     0.042850000000     0          
T        Si     0.811500000000     0.444500000000     0.073700000000     0          
O        O      0.773900000000     0.341266666667     0.542850000000     0          
O        O      0.825133333333     0.412566666667     0.568100000000     0          
O        O      0.800466666667     0.354433333333     0.625000000000     0          
O        O      0.846566666667     0.359800000000     0.558950000000     0          
O        O      0.704166666667     0.629166666667     0.509250000000     0          
T        Si     0.811500000000     0.367000000000     0.573700000000     0          
T        Si     0.746433333333     0.333333333333     0.500000000000     0          
O        O      0.765966666667     0.440566666667     0.792850000000     0          
O        O      0.745900000000     0.491800000000     0.818100000000     0          
O        O      0.779366666667     0.467133333333     0.875000000000     0          
O        O      0.820100000000     0.513233333333     0.808950000000     0          
O        O      0.741666666667     0.370833333333     0.759250000000     0          
T        Si     0.777833333333     0.478166666667     0.823700000000     0          
T        Si     0.746433333333     0.413100000000     0.750000000000     0          
O        O      0.992066666667     0.432633333333     0.542850000000     0          
O        O      0.920766666667     0.412566666667     0.568100000000     0          
O        O      0.978900000000     0.446033333333     0.625000000000     0          
O        O      0.973533333333     0.486766666667     0.558950000000     0          
O        O      0.704166666667     0.408333333333     0.509250000000     0          
T        Si     0.966333333333     0.444500000000     0.573700000000     0          
T        Si     0.666666666667     0.413100000000     0.500000000000     0          
O        O      0.892766666667     0.658733333333     0.792850000000     0          
O        O      0.841533333333     0.587433333333     0.818100000000     0          
O        O      0.866200000000     0.645566666667     0.875000000000     0          
O        O      0.820100000000     0.640200000000     0.808950000000     0          
O        O      0.962500000000     0.370833333333     0.759250000000     0          
T        Si     0.855166666667     0.633000000000     0.823700000000     0          
T        Si     0.920233333333     0.333333333333     0.750000000000     0          
O        O      0.900700000000     0.559433333333     0.542850000000     0          
O        O      0.920766666667     0.508200000000     0.568100000000     0          
O        O      0.887300000000     0.532866666667     0.625000000000     0          
O        O      0.846566666667     0.486766666667     0.558950000000     0          
O        O      0.925000000000     0.629166666667     0.509250000000     0          
T        Si     0.888833333333     0.521833333333     0.573700000000     0          
T        Si     0.920233333333     0.586900000000     0.500000000000     0          
O        O      0.674600000000     0.567366666667     0.792850000000     0          
O        O      0.745900000000     0.587433333333     0.818100000000     0          
O        O      0.687766666667     0.553966666667     0.875000000000     0          
O        O      0.693133333333     0.513233333333     0.808950000000     0          
O        O      0.962500000000     0.591666666667     0.759250000000     0          
T        Si     0.700333333333     0.555500000000     0.823700000000     0          
T        Si     0.666666666667     0.586900000000     0.750000000000     0          
O        O      0.992066666667     0.559433333333     0.707150000000     0          
O        O      0.920766666667     0.508200000000     0.681900000000     0          
O        O      0.978900000000     0.532866666667     0.625000000000     0          
O        O      0.973533333333     0.486766666667     0.691050000000     0          
O        O      0.704166666667     0.629166666667     0.740750000000     0          
T        Si     0.966333333333     0.521833333333     0.676300000000     0          
O        O      0.765966666667     0.658733333333     0.957150000000     0          
O        O      0.745900000000     0.587433333333     0.931900000000     0          
O        O      0.779366666667     0.645566666667     0.875000000000     0          
O        O      0.820100000000     0.640200000000     0.941050000000     0          
O        O      0.741666666667     0.370833333333     0.990750000000     0          
T        Si     0.777833333333     0.633000000000     0.926300000000     0          
O        O      0.773900000000     0.432633333333     0.707150000000     0          
O        O      0.825133333333     0.412566666667     0.681900000000     0          
O        O      0.800466666667     0.446033333333     0.625000000000     0          
O        O      0.846566666667     0.486766666667     0.691050000000     0          
O        O      0.704166666667     0.408333333333     0.740750000000     0          
T        Si     0.811500000000     0.444500000000     0.676300000000     0          
O        O      0.674600000000     0.440566666667     0.957150000000     0          
O        O      0.745900000000     0.491800000000     0.931900000000     0          
O        O      0.687766666667     0.467133333333     0.875000000000     0          
O        O      0.693133333333     0.513233333333     0.941050000000     0          
O        O      0.962500000000     0.370833333333     0.990750000000     0          
T        Si     0.700333333333     0.478166666667     0.926300000000     0          
O        O      0.900700000000     0.341266666667     0.707150000000     0          
O        O      0.920766666667     0.412566666667     0.681900000000     0          
O        O      0.887300000000     0.354433333333     0.625000000000     0          
O        O      0.846566666667     0.359800000000     0.691050000000     0          
O        O      0.925000000000     0.629166666667     0.740750000000     0          
T        Si     0.888833333333     0.367000000000     0.676300000000     0          
O        O      0.892766666667     0.567366666667     0.957150000000     0          
O        O      0.841533333333     0.587433333333     0.931900000000     0          
O        O      0.866200000000     0.553966666667     0.875000000000     0          
O        O      0.820100000000     0.513233333333     0.941050000000     0          
O        O      0.962500000000     0.591666666667     0.990750000000     0          
T        Si     0.855166666667     0.555500000000     0.926300000000     0          
O        O      0.892766666667     0.658733333333     0.957150000000     0          
T        Si     0.855166666667     0.633000000000     0.926300000000     0          
T        Si     0.920233333333     0.333333333333     0.500000000000     0          
O        O      0.900700000000     0.559433333333     0.707150000000     0          
T        Si     0.888833333333     0.521833333333     0.676300000000     0          
T        Si     0.920233333333     0.586900000000     0.750000000000     0          
O        O      0.674600000000     0.567366666667     0.957150000000     0          
T        Si     0.700333333333     0.555500000000     0.926300000000     0          
T        Si     0.666666666667     0.586900000000     0.500000000000     0          
O        O      0.773900000000     0.341266666667     0.707150000000     0          
T        Si     0.811500000000     0.367000000000     0.676300000000     0          
T        Si     0.746433333333     0.333333333333     0.750000000000     0          
O        O      0.765966666667     0.440566666667     0.957150000000     0          
T        Si     0.777833333333     0.478166666667     0.926300000000     0          
T        Si     0.746433333333     0.413100000000     0.500000000000     0          
O        O      0.992066666667     0.432633333333     0.707150000000     0          
T        Si     0.966333333333     0.444500000000     0.676300000000     0          
T        Si     0.666666666667     0.413100000000     0.750000000000     0          
O        O      0.674600000000     0.440566666667     0.792850000000     0          
T        Si     0.700333333333     0.478166666667     0.823700000000     0          
O        O      0.900700000000     0.341266666667     0.542850000000     0          
T        Si     0.888833333333     0.367000000000     0.573700000000     0          
O        O      0.892766666667     0.567366666667     0.792850000000     0          
T        Si     0.855166666667     0.555500000000     0.823700000000     0          
O        O      0.992066666667     0.559433333333     0.542850000000     0          
T        Si     0.966333333333     0.521833333333     0.573700000000     0          
O        O      0.765966666667     0.658733333333     0.792850000000     0          
T        Si     0.777833333333     0.633000000000     0.823700000000     0          
O        O      0.773900000000     0.432633333333     0.542850000000     0          
T        Si     0.811500000000     0.444500000000     0.573700000000     0          
O        O      0.773900000000     0.674600000000     0.042850000000     0          
O        O      0.825133333333     0.745900000000     0.068100000000     0          
O        O      0.800466666667     0.687766666667     0.125000000000     0          
O        O      0.846566666667     0.693133333333     0.058950000000     0          
O        O      0.704166666667     0.962500000000     0.009250000000     0          
T        Si     0.811500000000     0.700333333333     0.073700000000     0          
T        Si     0.746433333333     0.666666666667     0.000000000000     0          
O        O      0.765966666667     0.773900000000     0.292850000000     0          
O        O      0.745900000000     0.825133333333     0.318100000000     0          
O        O      0.779366666667     0.800466666667     0.375000000000     0          
O        O      0.820100000000     0.846566666667     0.308950000000     0          
O        O      0.741666666667     0.704166666667     0.259250000000     0          
T        Si     0.777833333333     0.811500000000     0.323700000000     0          
T        Si     0.746433333333     0.746433333333     0.250000000000     0          
O        O      0.992066666667     0.765966666667     0.042850000000     0          
O        O      0.920766666667     0.745900000000     0.068100000000     0          
O        O      0.978900000000     0.779366666667     0.125000000000     0          
O        O      0.973533333333     0.820100000000     0.058950000000     0          
O        O      0.704166666667     0.741666666667     0.009250000000     0          
T        Si     0.966333333333     0.777833333333     0.073700000000     0          
T        Si     0.666666666667     0.746433333333     0.000000000000     0          
O        O      0.892766666667     0.992066666667     0.292850000000     0          
O        O      0.841533333333     0.920766666667     0.318100000000     0          
O        O      0.866200000000     0.978900000000     0.375000000000     0          
O        O      0.820100000000     0.973533333333     0.308950000000     0          
O        O      0.962500000000     0.704166666667     0.259250000000     0          
T        Si     0.855166666667     0.966333333333     0.323700000000     0          
T        Si     0.920233333333     0.666666666667     0.250000000000     0          
O        O      0.900700000000     0.892766666667     0.042850000000     0          
O        O      0.920766666667     0.841533333333     0.068100000000     0          
O        O      0.887300000000     0.866200000000     0.125000000000     0          
O        O      0.846566666667     0.820100000000     0.058950000000     0          
O        O      0.925000000000     0.962500000000     0.009250000000     0          
T        Si     0.888833333333     0.855166666667     0.073700000000     0          
T        Si     0.920233333333     0.920233333333     0.000000000000     0          
O        O      0.674600000000     0.900700000000     0.292850000000     0          
O        O      0.745900000000     0.920766666667     0.318100000000     0          
O        O      0.687766666667     0.887300000000     0.375000000000     0          
O        O      0.693133333333     0.846566666667     0.308950000000     0          
O        O      0.962500000000     0.925000000000     0.259250000000     0          
T        Si     0.700333333333     0.888833333333     0.323700000000     0          
T        Si     0.666666666667     0.920233333333     0.250000000000     0          
O        O      0.992066666667     0.892766666667     0.207150000000     0          
O        O      0.920766666667     0.841533333333     0.181900000000     0          
O        O      0.978900000000     0.866200000000     0.125000000000     0          
O        O      0.973533333333     0.820100000000     0.191050000000     0          
O        O      0.704166666667     0.962500000000     0.240750000000     0          
T        Si     0.966333333333     0.855166666667     0.176300000000     0          
O        O      0.765966666667     0.992066666667     0.457150000000     0          
O        O      0.745900000000     0.920766666667     0.431900000000     0          
O        O      0.779366666667     0.978900000000     0.375000000000     0          
O        O      0.820100000000     0.973533333333     0.441050000000     0          
O        O      0.741666666667     0.704166666667     0.490750000000     0          
T        Si     0.777833333333     0.966333333333     0.426300000000     0          
O        O      0.773900000000     0.765966666667     0.207150000000     0          
O        O      0.825133333333     0.745900000000     0.181900000000     0          
O        O      0.800466666667     0.779366666667     0.125000000000     0          
O        O      0.846566666667     0.820100000000     0.191050000000     0          
O        O      0.704166666667     0.741666666667     0.240750000000     0          
T        Si     0.811500000000     0.777833333333     0.176300000000     0          
O        O      0.674600000000     0.773900000000     0.457150000000     0          
O        O      0.745900000000     0.825133333333     0.431900000000     0          
O        O      0.687766666667     0.800466666667     0.375000000000     0          
O        O      0.693133333333     0.846566666667     0.441050000000     0          
O        O      0.962500000000     0.704166666667     0.490750000000     0          
T        Si     0.700333333333     0.811500000000     0.426300000000     0          
O        O      0.900700000000     0.674600000000     0.207150000000     0          
O        O      0.920766666667     0.745900000000     0.181900000000     0          
O        O      0.887300000000     0.687766666667     0.125000000000     0          
O        O      0.846566666667     0.693133333333     0.191050000000     0          
O        O      0.925000000000     0.962500000000     0.240750000000     0          
T        Si     0.888833333333     0.700333333333     0.176300000000     0          
O        O      0.892766666667     0.900700000000     0.457150000000     0          
O        O      0.841533333333     0.920766666667     0.431900000000     0          
O        O      0.866200000000     0.887300000000     0.375000000000     0          
O        O      0.820100000000     0.846566666667     0.441050000000     0          
O        O      0.962500000000     0.925000000000     0.490750000000     0          
T        Si     0.855166666667     0.888833333333     0.426300000000     0          
O        O      0.892766666667     0.992066666667     0.457150000000     0          
T        Si     0.855166666667     0.966333333333     0.426300000000     0          
T        Si     0.920233333333     0.666666666667     0.000000000000     0          
O        O      0.900700000000     0.892766666667     0.207150000000     0          
T        Si     0.888833333333     0.855166666667     0.176300000000     0          
T        Si     0.920233333333     0.920233333333     0.250000000000     0          
O        O      0.674600000000     0.900700000000     0.457150000000     0          
T        Si     0.700333333333     0.888833333333     0.426300000000     0          
T        Si     0.666666666667     0.920233333333     0.000000000000     0          
O        O      0.773900000000     0.674600000000     0.207150000000     0          
T        Si     0.811500000000     0.700333333333     0.176300000000     0          
T        Si     0.746433333333     0.666666666667     0.250000000000     0          
O        O      0.765966666667     0.773900000000     0.457150000000     0          
T        Si     0.777833333333     0.811500000000     0.426300000000     0          
T        Si     0.746433333333     0.746433333333     0.000000000000     0          
O        O      0.992066666667     0.765966666667     0.207150000000     0          
T        Si     0.966333333333     0.777833333333     0.176300000000     0          
T        Si     0.666666666667     0.746433333333     0.250000000000     0          
O        O      0.674600000000     0.773900000000     0.292850000000     0          
T        Si     0.700333333333     0.811500000000     0.323700000000     0          
O        O      0.900700000000     0.674600000000     0.042850000000     0          
T        Si     0.888833333333     0.700333333333     0.073700000000     0          
O        O      0.892766666667     0.900700000000     0.292850000000     0          
T        Si     0.855166666667     0.888833333333     0.323700000000     0          
O        O      0.992066666667     0.892766666667     0.042850000000     0          
T        Si     0.966333333333     0.855166666667     0.073700000000     0          
O        O      0.765966666667     0.992066666667     0.292850000000     0          
T        Si     0.777833333333     0.966333333333     0.323700000000     0          
O        O      0.773900000000     0.765966666667     0.042850000000     0          
T        Si     0.811500000000     0.777833333333     0.073700000000     0          
O        O      0.773900000000     0.674600000000     0.542850000000     0          
O        O      0.825133333333     0.745900000000     0.568100000000     0          
O        O      0.800466666667     0.687766666667     0.625000000000     0          
O        O      0.846566666667     0.693133333333     0.558950000000     0          
O        O      0.704166666667     0.962500000000     0.509250000000     0          
T        Si     0.811500000000     0.700333333333     0.573700000000     0          
T        Si     0.746433333333     0.666666666667     0.500000000000     0          
O        O      0.765966666667     0.773900000000     0.792850000000     0          
O        O      0.745900000000     0.825133333333     0.818100000000     0          
O        O      0.779366666667     0.800466666667     0.875000000000     0          
O        O      0.820100000000     0.846566666667     0.808950000000     0          
O        O      0.741666666667     0.704166666667     0.759250000000     0          
T        Si     0.777833333333     0.811500000000     0.823700000000     0          
T        Si     0.746433333333     0.746433333333     0.750000000000     0          
O        O      0.992066666667     0.765966666667     0.542850000000     0          
O        O      0.920766666667     0.745900000000     0.568100000000     0          
O        O      0.978900000000     0.779366666667     0.625000000000     0          
O        O      0.973533333333     0.820100000000     0.558950000000     0          
O        O      0.704166666667     0.741666666667     0.509250000000     0          
T        Si     0.966333333333     0.777833333333     0.573700000000     0          
T        Si     0.666666666667     0.746433333333     0.500000000000     0          
O        O      0.892766666667     0.992066666667     0.792850000000     0          
O        O      0.841533333333     0.920766666667     0.818100000000     0          
O        O      0.866200000000     0.978900000000     0.875000000000     0          
O        O      0.820100000000     0.973533333333     0.808950000000     0          
O        O      0.962500000000     0.704166666667     0.759250000000     0          
T        Si     0.855166666667     0.966333333333     0.823700000000     0          
T        Si     0.920233333333     0.666666666667     0.750000000000     0          
O        O      0.900700000000     0.892766666667     0.542850000000     0          
O        O      0.920766666667     0.841533333333     0.568100000000     0          
O        O      0.887300000000     0.866200000000     0.625000000000     0          
O        O      0.846566666667     0.820100000000     0.558950000000     0          
O        O      0.925000000000     0.962500000000     0.509250000000     0          
T        Si     0.888833333333     0.855166666667     0.573700000000     0          
T        Si     0.920233333333     0.920233333333     0.500000000000     0          
O        O      0.674600000000     0.900700000000     0.792850000000     0          
O        O      0.745900000000     0.920766666667     0.818100000000     0          
O        O      0.687766666667     0.887300000000     0.875000000000     0          
O        O      0.693133333333     0.846566666667     0.808950000000     0          
O        O      0.962500000000     0.925000000000     0.759250000000     0          
T        Si     0.700333333333     0.888833333333     0.823700000000     0          
T        Si     0.666666666667     0.920233333333     0.750000000000     0          
O        O      0.992066666667     0.892766666667     0.707150000000     0          
O        O      0.920766666667     0.841533333333     0.681900000000     0          
O        O      0.978900000000     0.866200000000     0.625000000000     0          
O        O      0.973533333333     0.820100000000     0.691050000000     0          
O        O      0.704166666667     0.962500000000     0.740750000000     0          
T        Si     0.966333333333     0.855166666667     0.676300000000     0          
O        O      0.765966666667     0.992066666667     0.957150000000     0          
O        O      0.745900000000     0.920766666667     0.931900000000     0          
O        O      0.779366666667     0.978900000000     0.875000000000     0          
O        O      0.820100000000     0.973533333333     0.941050000000     0          
O        O      0.741666666667     0.704166666667     0.990750000000     0          
T        Si     0.777833333333     0.966333333333     0.926300000000     0          
O        O      0.773900000000     0.765966666667     0.707150000000     0          
O        O      0.825133333333     0.745900000000     0.681900000000     0          
O        O      0.800466666667     0.779366666667     0.625000000000     0          
O        O      0.846566666667     0.820100000000     0.691050000000     0          
O        O      0.704166666667     0.741666666667     0.740750000000     0          
T        Si     0.811500000000     0.777833333333     0.676300000000     0          
O        O      0.674600000000     0.773900000000     0.957150000000     0          
O        O      0.745900000000     0.825133333333     0.931900000000     0          
O        O      0.687766666667     0.800466666667     0.875000000000     0          
O        O      0.693133333333     0.846566666667     0.941050000000     0          
O        O      0.962500000000     0.704166666667     0.990750000000     0          
T        Si     0.700333333333     0.811500000000     0.926300000000     0          
O        O      0.900700000000     0.674600000000     0.707150000000     0          
O        O      0.920766666667     0.745900000000     0.681900000000     0          
O        O      0.887300000000     0.687766666667     0.625000000000     0          
O        O      0.846566666667     0.693133333333     0.691050000000     0          
O        O      0.925000000000     0.962500000000     0.740750000000     0          
T        Si     0.888833333333     0.700333333333     0.676300000000     0          
O        O      0.892766666667     0.900700000000     0.957150000000     0          
O        O      0.841533333333     0.920766666667     0.931900000000     0          
O        O      0.866200000000     0.887300000000     0.875000000000     0          
O        O      0.820100000000     0.846566666667     0.941050000000     0          
O        O      0.962500000000     0.925000000000     0.990750000000     0          
T        Si     0.855166666667     0.888833333333     0.926300000000     0          
O        O      0.892766666667     0.992066666667     0.957150000000     0          
T        Si     0.855166666667     0.966333333333     0.926300000000     0          
T        Si     0.920233333333     0.666666666667     0.500000000000     0          
O        O      0.900700000000     0.892766666667     0.707150000000     0          
T        Si     0.888833333333     0.855166666667     0.676300000000     0          
T        Si     0.920233333333     0.920233333333     0.750000000000     0          
O        O      0.674600000000     0.900700000000     0.957150000000     0          
T        Si     0.700333333333     0.888833333333     0.926300000000     0          
T        Si     0.666666666667     0.920233333333     0.500000000000     0          
O        O      0.773900000000     0.674600000000     0.707150000000     0          
T        Si     0.811500000000     0.700333333333     0.676300000000     0          
T        Si     0.746433333333     0.666666666667     0.750000000000     0          
O        O      0.765966666667     0.773900000000     0.957150000000     0          
T        Si     0.777833333333     0.811500000000     0.926300000000     0          
T        Si     0.746433333333     0.746433333333     0.500000000000     0          
O        O      0.992066666667     0.765966666667     0.707150000000     0          
T        Si     0.966333333333     0.777833333333     0.676300000000     0          
T        Si     0.666666666667     0.746433333333     0.750000000000     0          
O        O      0.674600000000     0.773900000000     0.792850000000     0          
T        Si     0.700333333333     0.811500000000     0.823700000000     0          
O        O      0.900700000000     0.674600000000     0.542850000000     0          
T        Si     0.888833333333     0.700333333333     0.573700000000     0          
O        O      0.892766666667     0.900700000000     0.792850000000     0          
T        Si     0.855166666667     0.888833333333     0.823700000000     0          
O        O      0.992066666667     0.892766666667     0.542850000000     0          
T        Si     0.966333333333     0.855166666667     0.573700000000     0          
O        O      0.765966666667     0.992066666667     0.792850000000     0          
T        Si     0.777833333333     0.966333333333     0.823700000000     0          
O        O      0.773900000000     0.765966666667     0.542850000000     0          
T        Si     0.811500000000     0.777833333333     0.573700000000     0          


