data_zeolite

_audit_creation_method RASPA-1.0
_audit_creation_date 2021-6-7
_audit_author_name ''

_cell_length_a    9.686
_cell_length_b    12.226
_cell_length_c    22.836
_cell_angle_alpha 90
_cell_angle_beta  90
_cell_angle_gamma 90
_cell_volume      48676.7

_symmetry_cell_setting          orthorhombic
_symmetry_space_group_name_Hall 'P 1'
_symmetry_space_group_name_H-M  'P 1'
_symmetry_Int_Tables_number     1

_symmetry_equiv_pos_as_xyz 'x,y,z'

loop_
_atom_site_label
_atom_site_type_symbol
_atom_site_fract_x
_atom_site_fract_y
_atom_site_fract_z
_atom_site_charge
T        Si     0.111400000000     0.291933333333     0.431500000000     0          
T        Si     0.217400000000     0.292333333333     0.263950000000     0          
T        Si     0.294633333333     0.175966666667     0.461150000000     0          
T        Si     0.048433333333     0.291166666667     0.327400000000     0          
T        Si     0.324800000000     0.041866666667     0.409300000000     0          
T        Si     0.077500000000     0.156933333333     0.379000000000     0          
T        Si     0.055266666667     0.041400000000     0.181500000000     0          
T        Si     0.282600000000     0.041000000000     0.013950000000     0          
T        Si     0.205366666667     0.157366666667     0.211150000000     0          
T        Si     0.118233333333     0.042166666667     0.077400000000     0          
T        Si     0.175200000000     0.291466666667     0.159300000000     0          
T        Si     0.089166666667     0.176400000000     0.129000000000     0          
T        Si     0.278066666667     0.208066666667     0.318500000000     0          
T        Si     0.050733333333     0.207666666667     0.486050000000     0          
T        Si     0.127966666667     0.324033333333     0.288850000000     0          
T        Si     0.215100000000     0.208833333333     0.422600000000     0          
T        Si     0.158133333333     0.124800000000     0.340700000000     0          
T        Si     0.244166666667     0.009733333333     0.371000000000     0          
T        Si     0.221933333333     0.125266666667     0.068500000000     0          
T        Si     0.115933333333     0.125666666667     0.236050000000     0          
T        Si     0.038700000000     0.009300000000     0.038850000000     0          
T        Si     0.284900000000     0.124500000000     0.172600000000     0          
T        Si     0.008533333333     0.208533333333     0.090700000000     0          
T        Si     0.255833333333     0.323600000000     0.121000000000     0          
T        Si     0.221933333333     0.041400000000     0.068500000000     0          
T        Si     0.115933333333     0.041000000000     0.236050000000     0          
T        Si     0.038700000000     0.157366666667     0.038850000000     0          
T        Si     0.284900000000     0.042166666667     0.172600000000     0          
T        Si     0.008533333333     0.291466666667     0.090700000000     0          
T        Si     0.255833333333     0.176400000000     0.121000000000     0          
T        Si     0.278066666667     0.291933333333     0.318500000000     0          
T        Si     0.050733333333     0.292333333333     0.486050000000     0          
T        Si     0.127966666667     0.175966666667     0.288850000000     0          
T        Si     0.215100000000     0.291166666667     0.422600000000     0          
T        Si     0.158133333333     0.041866666667     0.340700000000     0          
T        Si     0.244166666667     0.156933333333     0.371000000000     0          
T        Si     0.055266666667     0.125266666667     0.181500000000     0          
T        Si     0.282600000000     0.125666666667     0.013950000000     0          
T        Si     0.205366666667     0.009300000000     0.211150000000     0          
T        Si     0.118233333333     0.124500000000     0.077400000000     0          
T        Si     0.175200000000     0.208533333333     0.159300000000     0          
T        Si     0.089166666667     0.323600000000     0.129000000000     0          
T        Si     0.111400000000     0.208066666667     0.431500000000     0          
T        Si     0.217400000000     0.207666666667     0.263950000000     0          
T        Si     0.294633333333     0.324033333333     0.461150000000     0          
T        Si     0.048433333333     0.208833333333     0.327400000000     0          
T        Si     0.324800000000     0.124800000000     0.409300000000     0          
T        Si     0.077500000000     0.009733333333     0.379000000000     0          
T        Si     0.111400000000     0.291933333333     0.931500000000     0          
T        Si     0.217400000000     0.292333333333     0.763950000000     0          
T        Si     0.294633333333     0.175966666667     0.961150000000     0          
T        Si     0.048433333333     0.291166666667     0.827400000000     0          
T        Si     0.324800000000     0.041866666667     0.909300000000     0          
T        Si     0.077500000000     0.156933333333     0.879000000000     0          
T        Si     0.055266666667     0.041400000000     0.681500000000     0          
T        Si     0.282600000000     0.041000000000     0.513950000000     0          
T        Si     0.205366666667     0.157366666667     0.711150000000     0          
T        Si     0.118233333333     0.042166666667     0.577400000000     0          
T        Si     0.175200000000     0.291466666667     0.659300000000     0          
T        Si     0.089166666667     0.176400000000     0.629000000000     0          
T        Si     0.278066666667     0.208066666667     0.818500000000     0          
T        Si     0.050733333333     0.207666666667     0.986050000000     0          
T        Si     0.127966666667     0.324033333333     0.788850000000     0          
T        Si     0.215100000000     0.208833333333     0.922600000000     0          
T        Si     0.158133333333     0.124800000000     0.840700000000     0          
T        Si     0.244166666667     0.009733333333     0.871000000000     0          
T        Si     0.221933333333     0.125266666667     0.568500000000     0          
T        Si     0.115933333333     0.125666666667     0.736050000000     0          
T        Si     0.038700000000     0.009300000000     0.538850000000     0          
T        Si     0.284900000000     0.124500000000     0.672600000000     0          
T        Si     0.008533333333     0.208533333333     0.590700000000     0          
T        Si     0.255833333333     0.323600000000     0.621000000000     0          
T        Si     0.221933333333     0.041400000000     0.568500000000     0          
T        Si     0.115933333333     0.041000000000     0.736050000000     0          
T        Si     0.038700000000     0.157366666667     0.538850000000     0          
T        Si     0.284900000000     0.042166666667     0.672600000000     0          
T        Si     0.008533333333     0.291466666667     0.590700000000     0          
T        Si     0.255833333333     0.176400000000     0.621000000000     0          
T        Si     0.278066666667     0.291933333333     0.818500000000     0          
T        Si     0.050733333333     0.292333333333     0.986050000000     0          
T        Si     0.127966666667     0.175966666667     0.788850000000     0          
T        Si     0.215100000000     0.291166666667     0.922600000000     0          
T        Si     0.158133333333     0.041866666667     0.840700000000     0          
T        Si     0.244166666667     0.156933333333     0.871000000000     0          
T        Si     0.055266666667     0.125266666667     0.681500000000     0          
T        Si     0.282600000000     0.125666666667     0.513950000000     0          
T        Si     0.205366666667     0.009300000000     0.711150000000     0          
T        Si     0.118233333333     0.124500000000     0.577400000000     0          
T        Si     0.175200000000     0.208533333333     0.659300000000     0          
T        Si     0.089166666667     0.323600000000     0.629000000000     0          
T        Si     0.111400000000     0.208066666667     0.931500000000     0          
T        Si     0.217400000000     0.207666666667     0.763950000000     0          
T        Si     0.294633333333     0.324033333333     0.961150000000     0          
T        Si     0.048433333333     0.208833333333     0.827400000000     0          
T        Si     0.324800000000     0.124800000000     0.909300000000     0          
T        Si     0.077500000000     0.009733333333     0.879000000000     0          
T        Si     0.111400000000     0.625266666667     0.431500000000     0          
T        Si     0.217400000000     0.625666666667     0.263950000000     0          
T        Si     0.294633333333     0.509300000000     0.461150000000     0          
T        Si     0.048433333333     0.624500000000     0.327400000000     0          
T        Si     0.324800000000     0.375200000000     0.409300000000     0          
T        Si     0.077500000000     0.490266666667     0.379000000000     0          
T        Si     0.055266666667     0.374733333333     0.181500000000     0          
T        Si     0.282600000000     0.374333333333     0.013950000000     0          
T        Si     0.205366666667     0.490700000000     0.211150000000     0          
T        Si     0.118233333333     0.375500000000     0.077400000000     0          
T        Si     0.175200000000     0.624800000000     0.159300000000     0          
T        Si     0.089166666667     0.509733333333     0.129000000000     0          
T        Si     0.278066666667     0.541400000000     0.318500000000     0          
T        Si     0.050733333333     0.541000000000     0.486050000000     0          
T        Si     0.127966666667     0.657366666667     0.288850000000     0          
T        Si     0.215100000000     0.542166666667     0.422600000000     0          
T        Si     0.158133333333     0.458133333333     0.340700000000     0          
T        Si     0.244166666667     0.343066666667     0.371000000000     0          
T        Si     0.221933333333     0.458600000000     0.068500000000     0          
T        Si     0.115933333333     0.459000000000     0.236050000000     0          
T        Si     0.038700000000     0.342633333333     0.038850000000     0          
T        Si     0.284900000000     0.457833333333     0.172600000000     0          
T        Si     0.008533333333     0.541866666667     0.090700000000     0          
T        Si     0.255833333333     0.656933333333     0.121000000000     0          
T        Si     0.221933333333     0.374733333333     0.068500000000     0          
T        Si     0.115933333333     0.374333333333     0.236050000000     0          
T        Si     0.038700000000     0.490700000000     0.038850000000     0          
T        Si     0.284900000000     0.375500000000     0.172600000000     0          
T        Si     0.008533333333     0.624800000000     0.090700000000     0          
T        Si     0.255833333333     0.509733333333     0.121000000000     0          
T        Si     0.278066666667     0.625266666667     0.318500000000     0          
T        Si     0.050733333333     0.625666666667     0.486050000000     0          
T        Si     0.127966666667     0.509300000000     0.288850000000     0          
T        Si     0.215100000000     0.624500000000     0.422600000000     0          
T        Si     0.158133333333     0.375200000000     0.340700000000     0          
T        Si     0.244166666667     0.490266666667     0.371000000000     0          
T        Si     0.055266666667     0.458600000000     0.181500000000     0          
T        Si     0.282600000000     0.459000000000     0.013950000000     0          
T        Si     0.205366666667     0.342633333333     0.211150000000     0          
T        Si     0.118233333333     0.457833333333     0.077400000000     0          
T        Si     0.175200000000     0.541866666667     0.159300000000     0          
T        Si     0.089166666667     0.656933333333     0.129000000000     0          
T        Si     0.111400000000     0.541400000000     0.431500000000     0          
T        Si     0.217400000000     0.541000000000     0.263950000000     0          
T        Si     0.294633333333     0.657366666667     0.461150000000     0          
T        Si     0.048433333333     0.542166666667     0.327400000000     0          
T        Si     0.324800000000     0.458133333333     0.409300000000     0          
T        Si     0.077500000000     0.343066666667     0.379000000000     0          
T        Si     0.111400000000     0.625266666667     0.931500000000     0          
T        Si     0.217400000000     0.625666666667     0.763950000000     0          
T        Si     0.294633333333     0.509300000000     0.961150000000     0          
T        Si     0.048433333333     0.624500000000     0.827400000000     0          
T        Si     0.324800000000     0.375200000000     0.909300000000     0          
T        Si     0.077500000000     0.490266666667     0.879000000000     0          
T        Si     0.055266666667     0.374733333333     0.681500000000     0          
T        Si     0.282600000000     0.374333333333     0.513950000000     0          
T        Si     0.205366666667     0.490700000000     0.711150000000     0          
T        Si     0.118233333333     0.375500000000     0.577400000000     0          
T        Si     0.175200000000     0.624800000000     0.659300000000     0          
T        Si     0.089166666667     0.509733333333     0.629000000000     0          
T        Si     0.278066666667     0.541400000000     0.818500000000     0          
T        Si     0.050733333333     0.541000000000     0.986050000000     0          
T        Si     0.127966666667     0.657366666667     0.788850000000     0          
T        Si     0.215100000000     0.542166666667     0.922600000000     0          
T        Si     0.158133333333     0.458133333333     0.840700000000     0          
T        Si     0.244166666667     0.343066666667     0.871000000000     0          
T        Si     0.221933333333     0.458600000000     0.568500000000     0          
T        Si     0.115933333333     0.459000000000     0.736050000000     0          
T        Si     0.038700000000     0.342633333333     0.538850000000     0          
T        Si     0.284900000000     0.457833333333     0.672600000000     0          
T        Si     0.008533333333     0.541866666667     0.590700000000     0          
T        Si     0.255833333333     0.656933333333     0.621000000000     0          
T        Si     0.221933333333     0.374733333333     0.568500000000     0          
T        Si     0.115933333333     0.374333333333     0.736050000000     0          
T        Si     0.038700000000     0.490700000000     0.538850000000     0          
T        Si     0.284900000000     0.375500000000     0.672600000000     0          
T        Si     0.008533333333     0.624800000000     0.590700000000     0          
T        Si     0.255833333333     0.509733333333     0.621000000000     0          
T        Si     0.278066666667     0.625266666667     0.818500000000     0          
T        Si     0.050733333333     0.625666666667     0.986050000000     0          
T        Si     0.127966666667     0.509300000000     0.788850000000     0          
T        Si     0.215100000000     0.624500000000     0.922600000000     0          
T        Si     0.158133333333     0.375200000000     0.840700000000     0          
T        Si     0.244166666667     0.490266666667     0.871000000000     0          
T        Si     0.055266666667     0.458600000000     0.681500000000     0          
T        Si     0.282600000000     0.459000000000     0.513950000000     0          
T        Si     0.205366666667     0.342633333333     0.711150000000     0          
T        Si     0.118233333333     0.457833333333     0.577400000000     0          
T        Si     0.175200000000     0.541866666667     0.659300000000     0          
T        Si     0.089166666667     0.656933333333     0.629000000000     0          
T        Si     0.111400000000     0.541400000000     0.931500000000     0          
T        Si     0.217400000000     0.541000000000     0.763950000000     0          
T        Si     0.294633333333     0.657366666667     0.961150000000     0          
T        Si     0.048433333333     0.542166666667     0.827400000000     0          
T        Si     0.324800000000     0.458133333333     0.909300000000     0          
T        Si     0.077500000000     0.343066666667     0.879000000000     0          
T        Si     0.111400000000     0.958600000000     0.431500000000     0          
T        Si     0.217400000000     0.959000000000     0.263950000000     0          
T        Si     0.294633333333     0.842633333333     0.461150000000     0          
T        Si     0.048433333333     0.957833333333     0.327400000000     0          
T        Si     0.324800000000     0.708533333333     0.409300000000     0          
T        Si     0.077500000000     0.823600000000     0.379000000000     0          
T        Si     0.055266666667     0.708066666667     0.181500000000     0          
T        Si     0.282600000000     0.707666666667     0.013950000000     0          
T        Si     0.205366666667     0.824033333333     0.211150000000     0          
T        Si     0.118233333333     0.708833333333     0.077400000000     0          
T        Si     0.175200000000     0.958133333333     0.159300000000     0          
T        Si     0.089166666667     0.843066666667     0.129000000000     0          
T        Si     0.278066666667     0.874733333333     0.318500000000     0          
T        Si     0.050733333333     0.874333333333     0.486050000000     0          
T        Si     0.127966666667     0.990700000000     0.288850000000     0          
T        Si     0.215100000000     0.875500000000     0.422600000000     0          
T        Si     0.158133333333     0.791466666667     0.340700000000     0          
T        Si     0.244166666667     0.676400000000     0.371000000000     0          
T        Si     0.221933333333     0.791933333333     0.068500000000     0          
T        Si     0.115933333333     0.792333333333     0.236050000000     0          
T        Si     0.038700000000     0.675966666667     0.038850000000     0          
T        Si     0.284900000000     0.791166666667     0.172600000000     0          
T        Si     0.008533333333     0.875200000000     0.090700000000     0          
T        Si     0.255833333333     0.990266666667     0.121000000000     0          
T        Si     0.221933333333     0.708066666667     0.068500000000     0          
T        Si     0.115933333333     0.707666666667     0.236050000000     0          
T        Si     0.038700000000     0.824033333333     0.038850000000     0          
T        Si     0.284900000000     0.708833333333     0.172600000000     0          
T        Si     0.008533333333     0.958133333333     0.090700000000     0          
T        Si     0.255833333333     0.843066666667     0.121000000000     0          
T        Si     0.278066666667     0.958600000000     0.318500000000     0          
T        Si     0.050733333333     0.959000000000     0.486050000000     0          
T        Si     0.127966666667     0.842633333333     0.288850000000     0          
T        Si     0.215100000000     0.957833333333     0.422600000000     0          
T        Si     0.158133333333     0.708533333333     0.340700000000     0          
T        Si     0.244166666667     0.823600000000     0.371000000000     0          
T        Si     0.055266666667     0.791933333333     0.181500000000     0          
T        Si     0.282600000000     0.792333333333     0.013950000000     0          
T        Si     0.205366666667     0.675966666667     0.211150000000     0          
T        Si     0.118233333333     0.791166666667     0.077400000000     0          
T        Si     0.175200000000     0.875200000000     0.159300000000     0          
T        Si     0.089166666667     0.990266666667     0.129000000000     0          
T        Si     0.111400000000     0.874733333333     0.431500000000     0          
T        Si     0.217400000000     0.874333333333     0.263950000000     0          
T        Si     0.294633333333     0.990700000000     0.461150000000     0          
T        Si     0.048433333333     0.875500000000     0.327400000000     0          
T        Si     0.324800000000     0.791466666667     0.409300000000     0          
T        Si     0.077500000000     0.676400000000     0.379000000000     0          
T        Si     0.111400000000     0.958600000000     0.931500000000     0          
T        Si     0.217400000000     0.959000000000     0.763950000000     0          
T        Si     0.294633333333     0.842633333333     0.961150000000     0          
T        Si     0.048433333333     0.957833333333     0.827400000000     0          
T        Si     0.324800000000     0.708533333333     0.909300000000     0          
T        Si     0.077500000000     0.823600000000     0.879000000000     0          
T        Si     0.055266666667     0.708066666667     0.681500000000     0          
T        Si     0.282600000000     0.707666666667     0.513950000000     0          
T        Si     0.205366666667     0.824033333333     0.711150000000     0          
T        Si     0.118233333333     0.708833333333     0.577400000000     0          
T        Si     0.175200000000     0.958133333333     0.659300000000     0          
T        Si     0.089166666667     0.843066666667     0.629000000000     0          
T        Si     0.278066666667     0.874733333333     0.818500000000     0          
T        Si     0.050733333333     0.874333333333     0.986050000000     0          
T        Si     0.127966666667     0.990700000000     0.788850000000     0          
T        Si     0.215100000000     0.875500000000     0.922600000000     0          
T        Si     0.158133333333     0.791466666667     0.840700000000     0          
T        Si     0.244166666667     0.676400000000     0.871000000000     0          
T        Si     0.221933333333     0.791933333333     0.568500000000     0          
T        Si     0.115933333333     0.792333333333     0.736050000000     0          
T        Si     0.038700000000     0.675966666667     0.538850000000     0          
T        Si     0.284900000000     0.791166666667     0.672600000000     0          
T        Si     0.008533333333     0.875200000000     0.590700000000     0          
T        Si     0.255833333333     0.990266666667     0.621000000000     0          
T        Si     0.221933333333     0.708066666667     0.568500000000     0          
T        Si     0.115933333333     0.707666666667     0.736050000000     0          
T        Si     0.038700000000     0.824033333333     0.538850000000     0          
T        Si     0.284900000000     0.708833333333     0.672600000000     0          
T        Si     0.008533333333     0.958133333333     0.590700000000     0          
T        Si     0.255833333333     0.843066666667     0.621000000000     0          
T        Si     0.278066666667     0.958600000000     0.818500000000     0          
T        Si     0.050733333333     0.959000000000     0.986050000000     0          
T        Si     0.127966666667     0.842633333333     0.788850000000     0          
T        Si     0.215100000000     0.957833333333     0.922600000000     0          
T        Si     0.158133333333     0.708533333333     0.840700000000     0          
T        Si     0.244166666667     0.823600000000     0.871000000000     0          
T        Si     0.055266666667     0.791933333333     0.681500000000     0          
T        Si     0.282600000000     0.792333333333     0.513950000000     0          
T        Si     0.205366666667     0.675966666667     0.711150000000     0          
T        Si     0.118233333333     0.791166666667     0.577400000000     0          
T        Si     0.175200000000     0.875200000000     0.659300000000     0          
T        Si     0.089166666667     0.990266666667     0.629000000000     0          
T        Si     0.111400000000     0.874733333333     0.931500000000     0          
T        Si     0.217400000000     0.874333333333     0.763950000000     0          
T        Si     0.294633333333     0.990700000000     0.961150000000     0          
T        Si     0.048433333333     0.875500000000     0.827400000000     0          
T        Si     0.324800000000     0.791466666667     0.909300000000     0          
T        Si     0.077500000000     0.676400000000     0.879000000000     0          
T        Si     0.444733333333     0.291933333333     0.431500000000     0          
T        Si     0.550733333333     0.292333333333     0.263950000000     0          
T        Si     0.627966666667     0.175966666667     0.461150000000     0          
T        Si     0.381766666667     0.291166666667     0.327400000000     0          
T        Si     0.658133333333     0.041866666667     0.409300000000     0          
T        Si     0.410833333333     0.156933333333     0.379000000000     0          
T        Si     0.388600000000     0.041400000000     0.181500000000     0          
T        Si     0.615933333333     0.041000000000     0.013950000000     0          
T        Si     0.538700000000     0.157366666667     0.211150000000     0          
T        Si     0.451566666667     0.042166666667     0.077400000000     0          
T        Si     0.508533333333     0.291466666667     0.159300000000     0          
T        Si     0.422500000000     0.176400000000     0.129000000000     0          
T        Si     0.611400000000     0.208066666667     0.318500000000     0          
T        Si     0.384066666667     0.207666666667     0.486050000000     0          
T        Si     0.461300000000     0.324033333333     0.288850000000     0          
T        Si     0.548433333333     0.208833333333     0.422600000000     0          
T        Si     0.491466666667     0.124800000000     0.340700000000     0          
T        Si     0.577500000000     0.009733333333     0.371000000000     0          
T        Si     0.555266666667     0.125266666667     0.068500000000     0          
T        Si     0.449266666667     0.125666666667     0.236050000000     0          
T        Si     0.372033333333     0.009300000000     0.038850000000     0          
T        Si     0.618233333333     0.124500000000     0.172600000000     0          
T        Si     0.341866666667     0.208533333333     0.090700000000     0          
T        Si     0.589166666667     0.323600000000     0.121000000000     0          
T        Si     0.555266666667     0.041400000000     0.068500000000     0          
T        Si     0.449266666667     0.041000000000     0.236050000000     0          
T        Si     0.372033333333     0.157366666667     0.038850000000     0          
T        Si     0.618233333333     0.042166666667     0.172600000000     0          
T        Si     0.341866666667     0.291466666667     0.090700000000     0          
T        Si     0.589166666667     0.176400000000     0.121000000000     0          
T        Si     0.611400000000     0.291933333333     0.318500000000     0          
T        Si     0.384066666667     0.292333333333     0.486050000000     0          
T        Si     0.461300000000     0.175966666667     0.288850000000     0          
T        Si     0.548433333333     0.291166666667     0.422600000000     0          
T        Si     0.491466666667     0.041866666667     0.340700000000     0          
T        Si     0.577500000000     0.156933333333     0.371000000000     0          
T        Si     0.388600000000     0.125266666667     0.181500000000     0          
T        Si     0.615933333333     0.125666666667     0.013950000000     0          
T        Si     0.538700000000     0.009300000000     0.211150000000     0          
T        Si     0.451566666667     0.124500000000     0.077400000000     0          
T        Si     0.508533333333     0.208533333333     0.159300000000     0          
T        Si     0.422500000000     0.323600000000     0.129000000000     0          
T        Si     0.444733333333     0.208066666667     0.431500000000     0          
T        Si     0.550733333333     0.207666666667     0.263950000000     0          
T        Si     0.627966666667     0.324033333333     0.461150000000     0          
T        Si     0.381766666667     0.208833333333     0.327400000000     0          
T        Si     0.658133333333     0.124800000000     0.409300000000     0          
T        Si     0.410833333333     0.009733333333     0.379000000000     0          
T        Si     0.444733333333     0.291933333333     0.931500000000     0          
T        Si     0.550733333333     0.292333333333     0.763950000000     0          
T        Si     0.627966666667     0.175966666667     0.961150000000     0          
T        Si     0.381766666667     0.291166666667     0.827400000000     0          
T        Si     0.658133333333     0.041866666667     0.909300000000     0          
T        Si     0.410833333333     0.156933333333     0.879000000000     0          
T        Si     0.388600000000     0.041400000000     0.681500000000     0          
T        Si     0.615933333333     0.041000000000     0.513950000000     0          
T        Si     0.538700000000     0.157366666667     0.711150000000     0          
T        Si     0.451566666667     0.042166666667     0.577400000000     0          
T        Si     0.508533333333     0.291466666667     0.659300000000     0          
T        Si     0.422500000000     0.176400000000     0.629000000000     0          
T        Si     0.611400000000     0.208066666667     0.818500000000     0          
T        Si     0.384066666667     0.207666666667     0.986050000000     0          
T        Si     0.461300000000     0.324033333333     0.788850000000     0          
T        Si     0.548433333333     0.208833333333     0.922600000000     0          
T        Si     0.491466666667     0.124800000000     0.840700000000     0          
T        Si     0.577500000000     0.009733333333     0.871000000000     0          
T        Si     0.555266666667     0.125266666667     0.568500000000     0          
T        Si     0.449266666667     0.125666666667     0.736050000000     0          
T        Si     0.372033333333     0.009300000000     0.538850000000     0          
T        Si     0.618233333333     0.124500000000     0.672600000000     0          
T        Si     0.341866666667     0.208533333333     0.590700000000     0          
T        Si     0.589166666667     0.323600000000     0.621000000000     0          
T        Si     0.555266666667     0.041400000000     0.568500000000     0          
T        Si     0.449266666667     0.041000000000     0.736050000000     0          
T        Si     0.372033333333     0.157366666667     0.538850000000     0          
T        Si     0.618233333333     0.042166666667     0.672600000000     0          
T        Si     0.341866666667     0.291466666667     0.590700000000     0          
T        Si     0.589166666667     0.176400000000     0.621000000000     0          
T        Si     0.611400000000     0.291933333333     0.818500000000     0          
T        Si     0.384066666667     0.292333333333     0.986050000000     0          
T        Si     0.461300000000     0.175966666667     0.788850000000     0          
T        Si     0.548433333333     0.291166666667     0.922600000000     0          
T        Si     0.491466666667     0.041866666667     0.840700000000     0          
T        Si     0.577500000000     0.156933333333     0.871000000000     0          
T        Si     0.388600000000     0.125266666667     0.681500000000     0          
T        Si     0.615933333333     0.125666666667     0.513950000000     0          
T        Si     0.538700000000     0.009300000000     0.711150000000     0          
T        Si     0.451566666667     0.124500000000     0.577400000000     0          
T        Si     0.508533333333     0.208533333333     0.659300000000     0          
T        Si     0.422500000000     0.323600000000     0.629000000000     0          
T        Si     0.444733333333     0.208066666667     0.931500000000     0          
T        Si     0.550733333333     0.207666666667     0.763950000000     0          
T        Si     0.627966666667     0.324033333333     0.961150000000     0          
T        Si     0.381766666667     0.208833333333     0.827400000000     0          
T        Si     0.658133333333     0.124800000000     0.909300000000     0          
T        Si     0.410833333333     0.009733333333     0.879000000000     0          
T        Si     0.444733333333     0.625266666667     0.431500000000     0          
T        Si     0.550733333333     0.625666666667     0.263950000000     0          
T        Si     0.627966666667     0.509300000000     0.461150000000     0          
T        Si     0.381766666667     0.624500000000     0.327400000000     0          
T        Si     0.658133333333     0.375200000000     0.409300000000     0          
T        Si     0.410833333333     0.490266666667     0.379000000000     0          
T        Si     0.388600000000     0.374733333333     0.181500000000     0          
T        Si     0.615933333333     0.374333333333     0.013950000000     0          
T        Si     0.538700000000     0.490700000000     0.211150000000     0          
T        Si     0.451566666667     0.375500000000     0.077400000000     0          
T        Si     0.508533333333     0.624800000000     0.159300000000     0          
T        Si     0.422500000000     0.509733333333     0.129000000000     0          
T        Si     0.611400000000     0.541400000000     0.318500000000     0          
T        Si     0.384066666667     0.541000000000     0.486050000000     0          
T        Si     0.461300000000     0.657366666667     0.288850000000     0          
T        Si     0.548433333333     0.542166666667     0.422600000000     0          
T        Si     0.491466666667     0.458133333333     0.340700000000     0          
T        Si     0.577500000000     0.343066666667     0.371000000000     0          
T        Si     0.555266666667     0.458600000000     0.068500000000     0          
T        Si     0.449266666667     0.459000000000     0.236050000000     0          
T        Si     0.372033333333     0.342633333333     0.038850000000     0          
T        Si     0.618233333333     0.457833333333     0.172600000000     0          
T        Si     0.341866666667     0.541866666667     0.090700000000     0          
T        Si     0.589166666667     0.656933333333     0.121000000000     0          
T        Si     0.555266666667     0.374733333333     0.068500000000     0          
T        Si     0.449266666667     0.374333333333     0.236050000000     0          
T        Si     0.372033333333     0.490700000000     0.038850000000     0          
T        Si     0.618233333333     0.375500000000     0.172600000000     0          
T        Si     0.341866666667     0.624800000000     0.090700000000     0          
T        Si     0.589166666667     0.509733333333     0.121000000000     0          
T        Si     0.611400000000     0.625266666667     0.318500000000     0          
T        Si     0.384066666667     0.625666666667     0.486050000000     0          
T        Si     0.461300000000     0.509300000000     0.288850000000     0          
T        Si     0.548433333333     0.624500000000     0.422600000000     0          
T        Si     0.491466666667     0.375200000000     0.340700000000     0          
T        Si     0.577500000000     0.490266666667     0.371000000000     0          
T        Si     0.388600000000     0.458600000000     0.181500000000     0          
T        Si     0.615933333333     0.459000000000     0.013950000000     0          
T        Si     0.538700000000     0.342633333333     0.211150000000     0          
T        Si     0.451566666667     0.457833333333     0.077400000000     0          
T        Si     0.508533333333     0.541866666667     0.159300000000     0          
T        Si     0.422500000000     0.656933333333     0.129000000000     0          
T        Si     0.444733333333     0.541400000000     0.431500000000     0          
T        Si     0.550733333333     0.541000000000     0.263950000000     0          
T        Si     0.627966666667     0.657366666667     0.461150000000     0          
T        Si     0.381766666667     0.542166666667     0.327400000000     0          
T        Si     0.658133333333     0.458133333333     0.409300000000     0          
T        Si     0.410833333333     0.343066666667     0.379000000000     0          
T        Si     0.444733333333     0.625266666667     0.931500000000     0          
T        Si     0.550733333333     0.625666666667     0.763950000000     0          
T        Si     0.627966666667     0.509300000000     0.961150000000     0          
T        Si     0.381766666667     0.624500000000     0.827400000000     0          
T        Si     0.658133333333     0.375200000000     0.909300000000     0          
T        Si     0.410833333333     0.490266666667     0.879000000000     0          
T        Si     0.388600000000     0.374733333333     0.681500000000     0          
T        Si     0.615933333333     0.374333333333     0.513950000000     0          
T        Si     0.538700000000     0.490700000000     0.711150000000     0          
T        Si     0.451566666667     0.375500000000     0.577400000000     0          
T        Si     0.508533333333     0.624800000000     0.659300000000     0          
T        Si     0.422500000000     0.509733333333     0.629000000000     0          
T        Si     0.611400000000     0.541400000000     0.818500000000     0          
T        Si     0.384066666667     0.541000000000     0.986050000000     0          
T        Si     0.461300000000     0.657366666667     0.788850000000     0          
T        Si     0.548433333333     0.542166666667     0.922600000000     0          
T        Si     0.491466666667     0.458133333333     0.840700000000     0          
T        Si     0.577500000000     0.343066666667     0.871000000000     0          
T        Si     0.555266666667     0.458600000000     0.568500000000     0          
T        Si     0.449266666667     0.459000000000     0.736050000000     0          
T        Si     0.372033333333     0.342633333333     0.538850000000     0          
T        Si     0.618233333333     0.457833333333     0.672600000000     0          
T        Si     0.341866666667     0.541866666667     0.590700000000     0          
T        Si     0.589166666667     0.656933333333     0.621000000000     0          
T        Si     0.555266666667     0.374733333333     0.568500000000     0          
T        Si     0.449266666667     0.374333333333     0.736050000000     0          
T        Si     0.372033333333     0.490700000000     0.538850000000     0          
T        Si     0.618233333333     0.375500000000     0.672600000000     0          
T        Si     0.341866666667     0.624800000000     0.590700000000     0          
T        Si     0.589166666667     0.509733333333     0.621000000000     0          
T        Si     0.611400000000     0.625266666667     0.818500000000     0          
T        Si     0.384066666667     0.625666666667     0.986050000000     0          
T        Si     0.461300000000     0.509300000000     0.788850000000     0          
T        Si     0.548433333333     0.624500000000     0.922600000000     0          
T        Si     0.491466666667     0.375200000000     0.840700000000     0          
T        Si     0.577500000000     0.490266666667     0.871000000000     0          
T        Si     0.388600000000     0.458600000000     0.681500000000     0          
T        Si     0.615933333333     0.459000000000     0.513950000000     0          
T        Si     0.538700000000     0.342633333333     0.711150000000     0          
T        Si     0.451566666667     0.457833333333     0.577400000000     0          
T        Si     0.508533333333     0.541866666667     0.659300000000     0          
T        Si     0.422500000000     0.656933333333     0.629000000000     0          
T        Si     0.444733333333     0.541400000000     0.931500000000     0          
T        Si     0.550733333333     0.541000000000     0.763950000000     0          
T        Si     0.627966666667     0.657366666667     0.961150000000     0          
T        Si     0.381766666667     0.542166666667     0.827400000000     0          
T        Si     0.658133333333     0.458133333333     0.909300000000     0          
T        Si     0.410833333333     0.343066666667     0.879000000000     0          
T        Si     0.444733333333     0.958600000000     0.431500000000     0          
T        Si     0.550733333333     0.959000000000     0.263950000000     0          
T        Si     0.627966666667     0.842633333333     0.461150000000     0          
T        Si     0.381766666667     0.957833333333     0.327400000000     0          
T        Si     0.658133333333     0.708533333333     0.409300000000     0          
T        Si     0.410833333333     0.823600000000     0.379000000000     0          
T        Si     0.388600000000     0.708066666667     0.181500000000     0          
T        Si     0.615933333333     0.707666666667     0.013950000000     0          
T        Si     0.538700000000     0.824033333333     0.211150000000     0          
T        Si     0.451566666667     0.708833333333     0.077400000000     0          
T        Si     0.508533333333     0.958133333333     0.159300000000     0          
T        Si     0.422500000000     0.843066666667     0.129000000000     0          
T        Si     0.611400000000     0.874733333333     0.318500000000     0          
T        Si     0.384066666667     0.874333333333     0.486050000000     0          
T        Si     0.461300000000     0.990700000000     0.288850000000     0          
T        Si     0.548433333333     0.875500000000     0.422600000000     0          
T        Si     0.491466666667     0.791466666667     0.340700000000     0          
T        Si     0.577500000000     0.676400000000     0.371000000000     0          
T        Si     0.555266666667     0.791933333333     0.068500000000     0          
T        Si     0.449266666667     0.792333333333     0.236050000000     0          
T        Si     0.372033333333     0.675966666667     0.038850000000     0          
T        Si     0.618233333333     0.791166666667     0.172600000000     0          
T        Si     0.341866666667     0.875200000000     0.090700000000     0          
T        Si     0.589166666667     0.990266666667     0.121000000000     0          
T        Si     0.555266666667     0.708066666667     0.068500000000     0          
T        Si     0.449266666667     0.707666666667     0.236050000000     0          
T        Si     0.372033333333     0.824033333333     0.038850000000     0          
T        Si     0.618233333333     0.708833333333     0.172600000000     0          
T        Si     0.341866666667     0.958133333333     0.090700000000     0          
T        Si     0.589166666667     0.843066666667     0.121000000000     0          
T        Si     0.611400000000     0.958600000000     0.318500000000     0          
T        Si     0.384066666667     0.959000000000     0.486050000000     0          
T        Si     0.461300000000     0.842633333333     0.288850000000     0          
T        Si     0.548433333333     0.957833333333     0.422600000000     0          
T        Si     0.491466666667     0.708533333333     0.340700000000     0          
T        Si     0.577500000000     0.823600000000     0.371000000000     0          
T        Si     0.388600000000     0.791933333333     0.181500000000     0          
T        Si     0.615933333333     0.792333333333     0.013950000000     0          
T        Si     0.538700000000     0.675966666667     0.211150000000     0          
T        Si     0.451566666667     0.791166666667     0.077400000000     0          
T        Si     0.508533333333     0.875200000000     0.159300000000     0          
T        Si     0.422500000000     0.990266666667     0.129000000000     0          
T        Si     0.444733333333     0.874733333333     0.431500000000     0          
T        Si     0.550733333333     0.874333333333     0.263950000000     0          
T        Si     0.627966666667     0.990700000000     0.461150000000     0          
T        Si     0.381766666667     0.875500000000     0.327400000000     0          
T        Si     0.658133333333     0.791466666667     0.409300000000     0          
T        Si     0.410833333333     0.676400000000     0.379000000000     0          
T        Si     0.444733333333     0.958600000000     0.931500000000     0          
T        Si     0.550733333333     0.959000000000     0.763950000000     0          
T        Si     0.627966666667     0.842633333333     0.961150000000     0          
T        Si     0.381766666667     0.957833333333     0.827400000000     0          
T        Si     0.658133333333     0.708533333333     0.909300000000     0          
T        Si     0.410833333333     0.823600000000     0.879000000000     0          
T        Si     0.388600000000     0.708066666667     0.681500000000     0          
T        Si     0.615933333333     0.707666666667     0.513950000000     0          
T        Si     0.538700000000     0.824033333333     0.711150000000     0          
T        Si     0.451566666667     0.708833333333     0.577400000000     0          
T        Si     0.508533333333     0.958133333333     0.659300000000     0          
T        Si     0.422500000000     0.843066666667     0.629000000000     0          
T        Si     0.611400000000     0.874733333333     0.818500000000     0          
T        Si     0.384066666667     0.874333333333     0.986050000000     0          
T        Si     0.461300000000     0.990700000000     0.788850000000     0          
T        Si     0.548433333333     0.875500000000     0.922600000000     0          
T        Si     0.491466666667     0.791466666667     0.840700000000     0          
T        Si     0.577500000000     0.676400000000     0.871000000000     0          
T        Si     0.555266666667     0.791933333333     0.568500000000     0          
T        Si     0.449266666667     0.792333333333     0.736050000000     0          
T        Si     0.372033333333     0.675966666667     0.538850000000     0          
T        Si     0.618233333333     0.791166666667     0.672600000000     0          
T        Si     0.341866666667     0.875200000000     0.590700000000     0          
T        Si     0.589166666667     0.990266666667     0.621000000000     0          
T        Si     0.555266666667     0.708066666667     0.568500000000     0          
T        Si     0.449266666667     0.707666666667     0.736050000000     0          
T        Si     0.372033333333     0.824033333333     0.538850000000     0          
T        Si     0.618233333333     0.708833333333     0.672600000000     0          
T        Si     0.341866666667     0.958133333333     0.590700000000     0          
T        Si     0.589166666667     0.843066666667     0.621000000000     0          
T        Si     0.611400000000     0.958600000000     0.818500000000     0          
T        Si     0.384066666667     0.959000000000     0.986050000000     0          
T        Si     0.461300000000     0.842633333333     0.788850000000     0          
T        Si     0.548433333333     0.957833333333     0.922600000000     0          
T        Si     0.491466666667     0.708533333333     0.840700000000     0          
T        Si     0.577500000000     0.823600000000     0.871000000000     0          
T        Si     0.388600000000     0.791933333333     0.681500000000     0          
T        Si     0.615933333333     0.792333333333     0.513950000000     0          
T        Si     0.538700000000     0.675966666667     0.711150000000     0          
T        Si     0.451566666667     0.791166666667     0.577400000000     0          
T        Si     0.508533333333     0.875200000000     0.659300000000     0          
T        Si     0.422500000000     0.990266666667     0.629000000000     0          
T        Si     0.444733333333     0.874733333333     0.931500000000     0          
T        Si     0.550733333333     0.874333333333     0.763950000000     0          
T        Si     0.627966666667     0.990700000000     0.961150000000     0          
T        Si     0.381766666667     0.875500000000     0.827400000000     0          
T        Si     0.658133333333     0.791466666667     0.909300000000     0          
T        Si     0.410833333333     0.676400000000     0.879000000000     0          
T        Si     0.778066666667     0.291933333333     0.431500000000     0          
T        Si     0.884066666667     0.292333333333     0.263950000000     0          
T        Si     0.961300000000     0.175966666667     0.461150000000     0          
T        Si     0.715100000000     0.291166666667     0.327400000000     0          
T        Si     0.991466666667     0.041866666667     0.409300000000     0          
T        Si     0.744166666667     0.156933333333     0.379000000000     0          
T        Si     0.721933333333     0.041400000000     0.181500000000     0          
T        Si     0.949266666667     0.041000000000     0.013950000000     0          
T        Si     0.872033333333     0.157366666667     0.211150000000     0          
T        Si     0.784900000000     0.042166666667     0.077400000000     0          
T        Si     0.841866666667     0.291466666667     0.159300000000     0          
T        Si     0.755833333333     0.176400000000     0.129000000000     0          
T        Si     0.944733333333     0.208066666667     0.318500000000     0          
T        Si     0.717400000000     0.207666666667     0.486050000000     0          
T        Si     0.794633333333     0.324033333333     0.288850000000     0          
T        Si     0.881766666667     0.208833333333     0.422600000000     0          
T        Si     0.824800000000     0.124800000000     0.340700000000     0          
T        Si     0.910833333333     0.009733333333     0.371000000000     0          
T        Si     0.888600000000     0.125266666667     0.068500000000     0          
T        Si     0.782600000000     0.125666666667     0.236050000000     0          
T        Si     0.705366666667     0.009300000000     0.038850000000     0          
T        Si     0.951566666667     0.124500000000     0.172600000000     0          
T        Si     0.675200000000     0.208533333333     0.090700000000     0          
T        Si     0.922500000000     0.323600000000     0.121000000000     0          
T        Si     0.888600000000     0.041400000000     0.068500000000     0          
T        Si     0.782600000000     0.041000000000     0.236050000000     0          
T        Si     0.705366666667     0.157366666667     0.038850000000     0          
T        Si     0.951566666667     0.042166666667     0.172600000000     0          
T        Si     0.675200000000     0.291466666667     0.090700000000     0          
T        Si     0.922500000000     0.176400000000     0.121000000000     0          
T        Si     0.944733333333     0.291933333333     0.318500000000     0          
T        Si     0.717400000000     0.292333333333     0.486050000000     0          
T        Si     0.794633333333     0.175966666667     0.288850000000     0          
T        Si     0.881766666667     0.291166666667     0.422600000000     0          
T        Si     0.824800000000     0.041866666667     0.340700000000     0          
T        Si     0.910833333333     0.156933333333     0.371000000000     0          
T        Si     0.721933333333     0.125266666667     0.181500000000     0          
T        Si     0.949266666667     0.125666666667     0.013950000000     0          
T        Si     0.872033333333     0.009300000000     0.211150000000     0          
T        Si     0.784900000000     0.124500000000     0.077400000000     0          
T        Si     0.841866666667     0.208533333333     0.159300000000     0          
T        Si     0.755833333333     0.323600000000     0.129000000000     0          
T        Si     0.778066666667     0.208066666667     0.431500000000     0          
T        Si     0.884066666667     0.207666666667     0.263950000000     0          
T        Si     0.961300000000     0.324033333333     0.461150000000     0          
T        Si     0.715100000000     0.208833333333     0.327400000000     0          
T        Si     0.991466666667     0.124800000000     0.409300000000     0          
T        Si     0.744166666667     0.009733333333     0.379000000000     0          
T        Si     0.778066666667     0.291933333333     0.931500000000     0          
T        Si     0.884066666667     0.292333333333     0.763950000000     0          
T        Si     0.961300000000     0.175966666667     0.961150000000     0          
T        Si     0.715100000000     0.291166666667     0.827400000000     0          
T        Si     0.991466666667     0.041866666667     0.909300000000     0          
T        Si     0.744166666667     0.156933333333     0.879000000000     0          
T        Si     0.721933333333     0.041400000000     0.681500000000     0          
T        Si     0.949266666667     0.041000000000     0.513950000000     0          
T        Si     0.872033333333     0.157366666667     0.711150000000     0          
T        Si     0.784900000000     0.042166666667     0.577400000000     0          
T        Si     0.841866666667     0.291466666667     0.659300000000     0          
T        Si     0.755833333333     0.176400000000     0.629000000000     0          
T        Si     0.944733333333     0.208066666667     0.818500000000     0          
T        Si     0.717400000000     0.207666666667     0.986050000000     0          
T        Si     0.794633333333     0.324033333333     0.788850000000     0          
T        Si     0.881766666667     0.208833333333     0.922600000000     0          
T        Si     0.824800000000     0.124800000000     0.840700000000     0          
T        Si     0.910833333333     0.009733333333     0.871000000000     0          
T        Si     0.888600000000     0.125266666667     0.568500000000     0          
T        Si     0.782600000000     0.125666666667     0.736050000000     0          
T        Si     0.705366666667     0.009300000000     0.538850000000     0          
T        Si     0.951566666667     0.124500000000     0.672600000000     0          
T        Si     0.675200000000     0.208533333333     0.590700000000     0          
T        Si     0.922500000000     0.323600000000     0.621000000000     0          
T        Si     0.888600000000     0.041400000000     0.568500000000     0          
T        Si     0.782600000000     0.041000000000     0.736050000000     0          
T        Si     0.705366666667     0.157366666667     0.538850000000     0          
T        Si     0.951566666667     0.042166666667     0.672600000000     0          
T        Si     0.675200000000     0.291466666667     0.590700000000     0          
T        Si     0.922500000000     0.176400000000     0.621000000000     0          
T        Si     0.944733333333     0.291933333333     0.818500000000     0          
T        Si     0.717400000000     0.292333333333     0.986050000000     0          
T        Si     0.794633333333     0.175966666667     0.788850000000     0          
T        Si     0.881766666667     0.291166666667     0.922600000000     0          
T        Si     0.824800000000     0.041866666667     0.840700000000     0          
T        Si     0.910833333333     0.156933333333     0.871000000000     0          
T        Si     0.721933333333     0.125266666667     0.681500000000     0          
T        Si     0.949266666667     0.125666666667     0.513950000000     0          
T        Si     0.872033333333     0.009300000000     0.711150000000     0          
T        Si     0.784900000000     0.124500000000     0.577400000000     0          
T        Si     0.841866666667     0.208533333333     0.659300000000     0          
T        Si     0.755833333333     0.323600000000     0.629000000000     0          
T        Si     0.778066666667     0.208066666667     0.931500000000     0          
T        Si     0.884066666667     0.207666666667     0.763950000000     0          
T        Si     0.961300000000     0.324033333333     0.961150000000     0          
T        Si     0.715100000000     0.208833333333     0.827400000000     0          
T        Si     0.991466666667     0.124800000000     0.909300000000     0          
T        Si     0.744166666667     0.009733333333     0.879000000000     0          
T        Si     0.778066666667     0.625266666667     0.431500000000     0          
T        Si     0.884066666667     0.625666666667     0.263950000000     0          
T        Si     0.961300000000     0.509300000000     0.461150000000     0          
T        Si     0.715100000000     0.624500000000     0.327400000000     0          
T        Si     0.991466666667     0.375200000000     0.409300000000     0          
T        Si     0.744166666667     0.490266666667     0.379000000000     0          
T        Si     0.721933333333     0.374733333333     0.181500000000     0          
T        Si     0.949266666667     0.374333333333     0.013950000000     0          
T        Si     0.872033333333     0.490700000000     0.211150000000     0          
T        Si     0.784900000000     0.375500000000     0.077400000000     0          
T        Si     0.841866666667     0.624800000000     0.159300000000     0          
T        Si     0.755833333333     0.509733333333     0.129000000000     0          
T        Si     0.944733333333     0.541400000000     0.318500000000     0          
T        Si     0.717400000000     0.541000000000     0.486050000000     0          
T        Si     0.794633333333     0.657366666667     0.288850000000     0          
T        Si     0.881766666667     0.542166666667     0.422600000000     0          
T        Si     0.824800000000     0.458133333333     0.340700000000     0          
T        Si     0.910833333333     0.343066666667     0.371000000000     0          
T        Si     0.888600000000     0.458600000000     0.068500000000     0          
T        Si     0.782600000000     0.459000000000     0.236050000000     0          
T        Si     0.705366666667     0.342633333333     0.038850000000     0          
T        Si     0.951566666667     0.457833333333     0.172600000000     0          
T        Si     0.675200000000     0.541866666667     0.090700000000     0          
T        Si     0.922500000000     0.656933333333     0.121000000000     0          
T        Si     0.888600000000     0.374733333333     0.068500000000     0          
T        Si     0.782600000000     0.374333333333     0.236050000000     0          
T        Si     0.705366666667     0.490700000000     0.038850000000     0          
T        Si     0.951566666667     0.375500000000     0.172600000000     0          
T        Si     0.675200000000     0.624800000000     0.090700000000     0          
T        Si     0.922500000000     0.509733333333     0.121000000000     0          
T        Si     0.944733333333     0.625266666667     0.318500000000     0          
T        Si     0.717400000000     0.625666666667     0.486050000000     0          
T        Si     0.794633333333     0.509300000000     0.288850000000     0          
T        Si     0.881766666667     0.624500000000     0.422600000000     0          
T        Si     0.824800000000     0.375200000000     0.340700000000     0          
T        Si     0.910833333333     0.490266666667     0.371000000000     0          
T        Si     0.721933333333     0.458600000000     0.181500000000     0          
T        Si     0.949266666667     0.459000000000     0.013950000000     0          
T        Si     0.872033333333     0.342633333333     0.211150000000     0          
T        Si     0.784900000000     0.457833333333     0.077400000000     0          
T        Si     0.841866666667     0.541866666667     0.159300000000     0          
T        Si     0.755833333333     0.656933333333     0.129000000000     0          
T        Si     0.778066666667     0.541400000000     0.431500000000     0          
T        Si     0.884066666667     0.541000000000     0.263950000000     0          
T        Si     0.961300000000     0.657366666667     0.461150000000     0          
T        Si     0.715100000000     0.542166666667     0.327400000000     0          
T        Si     0.991466666667     0.458133333333     0.409300000000     0          
T        Si     0.744166666667     0.343066666667     0.379000000000     0          
T        Si     0.778066666667     0.625266666667     0.931500000000     0          
T        Si     0.884066666667     0.625666666667     0.763950000000     0          
T        Si     0.961300000000     0.509300000000     0.961150000000     0          
T        Si     0.715100000000     0.624500000000     0.827400000000     0          
T        Si     0.991466666667     0.375200000000     0.909300000000     0          
T        Si     0.744166666667     0.490266666667     0.879000000000     0          
T        Si     0.721933333333     0.374733333333     0.681500000000     0          
T        Si     0.949266666667     0.374333333333     0.513950000000     0          
T        Si     0.872033333333     0.490700000000     0.711150000000     0          
T        Si     0.784900000000     0.375500000000     0.577400000000     0          
T        Si     0.841866666667     0.624800000000     0.659300000000     0          
T        Si     0.755833333333     0.509733333333     0.629000000000     0          
T        Si     0.944733333333     0.541400000000     0.818500000000     0          
T        Si     0.717400000000     0.541000000000     0.986050000000     0          
T        Si     0.794633333333     0.657366666667     0.788850000000     0          
T        Si     0.881766666667     0.542166666667     0.922600000000     0          
T        Si     0.824800000000     0.458133333333     0.840700000000     0          
T        Si     0.910833333333     0.343066666667     0.871000000000     0          
T        Si     0.888600000000     0.458600000000     0.568500000000     0          
T        Si     0.782600000000     0.459000000000     0.736050000000     0          
T        Si     0.705366666667     0.342633333333     0.538850000000     0          
T        Si     0.951566666667     0.457833333333     0.672600000000     0          
T        Si     0.675200000000     0.541866666667     0.590700000000     0          
T        Si     0.922500000000     0.656933333333     0.621000000000     0          
T        Si     0.888600000000     0.374733333333     0.568500000000     0          
T        Si     0.782600000000     0.374333333333     0.736050000000     0          
T        Si     0.705366666667     0.490700000000     0.538850000000     0          
T        Si     0.951566666667     0.375500000000     0.672600000000     0          
T        Si     0.675200000000     0.624800000000     0.590700000000     0          
T        Si     0.922500000000     0.509733333333     0.621000000000     0          
T        Si     0.944733333333     0.625266666667     0.818500000000     0          
T        Si     0.717400000000     0.625666666667     0.986050000000     0          
T        Si     0.794633333333     0.509300000000     0.788850000000     0          
T        Si     0.881766666667     0.624500000000     0.922600000000     0          
T        Si     0.824800000000     0.375200000000     0.840700000000     0          
T        Si     0.910833333333     0.490266666667     0.871000000000     0          
T        Si     0.721933333333     0.458600000000     0.681500000000     0          
T        Si     0.949266666667     0.459000000000     0.513950000000     0          
T        Si     0.872033333333     0.342633333333     0.711150000000     0          
T        Si     0.784900000000     0.457833333333     0.577400000000     0          
T        Si     0.841866666667     0.541866666667     0.659300000000     0          
T        Si     0.755833333333     0.656933333333     0.629000000000     0          
T        Si     0.778066666667     0.541400000000     0.931500000000     0          
T        Si     0.884066666667     0.541000000000     0.763950000000     0          
T        Si     0.961300000000     0.657366666667     0.961150000000     0          
T        Si     0.715100000000     0.542166666667     0.827400000000     0          
T        Si     0.991466666667     0.458133333333     0.909300000000     0          
T        Si     0.744166666667     0.343066666667     0.879000000000     0          
T        Si     0.778066666667     0.958600000000     0.431500000000     0          
T        Si     0.884066666667     0.959000000000     0.263950000000     0          
T        Si     0.961300000000     0.842633333333     0.461150000000     0          
T        Si     0.715100000000     0.957833333333     0.327400000000     0          
T        Si     0.991466666667     0.708533333333     0.409300000000     0          
T        Si     0.744166666667     0.823600000000     0.379000000000     0          
T        Si     0.721933333333     0.708066666667     0.181500000000     0          
T        Si     0.949266666667     0.707666666667     0.013950000000     0          
T        Si     0.872033333333     0.824033333333     0.211150000000     0          
T        Si     0.784900000000     0.708833333333     0.077400000000     0          
T        Si     0.841866666667     0.958133333333     0.159300000000     0          
T        Si     0.755833333333     0.843066666667     0.129000000000     0          
T        Si     0.944733333333     0.874733333333     0.318500000000     0          
T        Si     0.717400000000     0.874333333333     0.486050000000     0          
T        Si     0.794633333333     0.990700000000     0.288850000000     0          
T        Si     0.881766666667     0.875500000000     0.422600000000     0          
T        Si     0.824800000000     0.791466666667     0.340700000000     0          
T        Si     0.910833333333     0.676400000000     0.371000000000     0          
T        Si     0.888600000000     0.791933333333     0.068500000000     0          
T        Si     0.782600000000     0.792333333333     0.236050000000     0          
T        Si     0.705366666667     0.675966666667     0.038850000000     0          
T        Si     0.951566666667     0.791166666667     0.172600000000     0          
T        Si     0.675200000000     0.875200000000     0.090700000000     0          
T        Si     0.922500000000     0.990266666667     0.121000000000     0          
T        Si     0.888600000000     0.708066666667     0.068500000000     0          
T        Si     0.782600000000     0.707666666667     0.236050000000     0          
T        Si     0.705366666667     0.824033333333     0.038850000000     0          
T        Si     0.951566666667     0.708833333333     0.172600000000     0          
T        Si     0.675200000000     0.958133333333     0.090700000000     0          
T        Si     0.922500000000     0.843066666667     0.121000000000     0          
T        Si     0.944733333333     0.958600000000     0.318500000000     0          
T        Si     0.717400000000     0.959000000000     0.486050000000     0          
T        Si     0.794633333333     0.842633333333     0.288850000000     0          
T        Si     0.881766666667     0.957833333333     0.422600000000     0          
T        Si     0.824800000000     0.708533333333     0.340700000000     0          
T        Si     0.910833333333     0.823600000000     0.371000000000     0          
T        Si     0.721933333333     0.791933333333     0.181500000000     0          
T        Si     0.949266666667     0.792333333333     0.013950000000     0          
T        Si     0.872033333333     0.675966666667     0.211150000000     0          
T        Si     0.784900000000     0.791166666667     0.077400000000     0          
T        Si     0.841866666667     0.875200000000     0.159300000000     0          
T        Si     0.755833333333     0.990266666667     0.129000000000     0          
T        Si     0.778066666667     0.874733333333     0.431500000000     0          
T        Si     0.884066666667     0.874333333333     0.263950000000     0          
T        Si     0.961300000000     0.990700000000     0.461150000000     0          
T        Si     0.715100000000     0.875500000000     0.327400000000     0          
T        Si     0.991466666667     0.791466666667     0.409300000000     0          
T        Si     0.744166666667     0.676400000000     0.379000000000     0          
T        Si     0.778066666667     0.958600000000     0.931500000000     0          
T        Si     0.884066666667     0.959000000000     0.763950000000     0          
T        Si     0.961300000000     0.842633333333     0.961150000000     0          
T        Si     0.715100000000     0.957833333333     0.827400000000     0          
T        Si     0.991466666667     0.708533333333     0.909300000000     0          
T        Si     0.744166666667     0.823600000000     0.879000000000     0          
T        Si     0.721933333333     0.708066666667     0.681500000000     0          
T        Si     0.949266666667     0.707666666667     0.513950000000     0          
T        Si     0.872033333333     0.824033333333     0.711150000000     0          
T        Si     0.784900000000     0.708833333333     0.577400000000     0          
T        Si     0.841866666667     0.958133333333     0.659300000000     0          
T        Si     0.755833333333     0.843066666667     0.629000000000     0          
T        Si     0.944733333333     0.874733333333     0.818500000000     0          
T        Si     0.717400000000     0.874333333333     0.986050000000     0          
T        Si     0.794633333333     0.990700000000     0.788850000000     0          
T        Si     0.881766666667     0.875500000000     0.922600000000     0          
T        Si     0.824800000000     0.791466666667     0.840700000000     0          
T        Si     0.910833333333     0.676400000000     0.871000000000     0          
T        Si     0.888600000000     0.791933333333     0.568500000000     0          
T        Si     0.782600000000     0.792333333333     0.736050000000     0          
T        Si     0.705366666667     0.675966666667     0.538850000000     0          
T        Si     0.951566666667     0.791166666667     0.672600000000     0          
T        Si     0.675200000000     0.875200000000     0.590700000000     0          
T        Si     0.922500000000     0.990266666667     0.621000000000     0          
T        Si     0.888600000000     0.708066666667     0.568500000000     0          
T        Si     0.782600000000     0.707666666667     0.736050000000     0          
T        Si     0.705366666667     0.824033333333     0.538850000000     0          
T        Si     0.951566666667     0.708833333333     0.672600000000     0          
T        Si     0.675200000000     0.958133333333     0.590700000000     0          
T        Si     0.922500000000     0.843066666667     0.621000000000     0          
T        Si     0.944733333333     0.958600000000     0.818500000000     0          
T        Si     0.717400000000     0.959000000000     0.986050000000     0          
T        Si     0.794633333333     0.842633333333     0.788850000000     0          
T        Si     0.881766666667     0.957833333333     0.922600000000     0          
T        Si     0.824800000000     0.708533333333     0.840700000000     0          
T        Si     0.910833333333     0.823600000000     0.871000000000     0          
T        Si     0.721933333333     0.791933333333     0.681500000000     0          
T        Si     0.949266666667     0.792333333333     0.513950000000     0          
T        Si     0.872033333333     0.675966666667     0.711150000000     0          
T        Si     0.784900000000     0.791166666667     0.577400000000     0          
T        Si     0.841866666667     0.875200000000     0.659300000000     0          
T        Si     0.755833333333     0.990266666667     0.629000000000     0          
T        Si     0.778066666667     0.874733333333     0.931500000000     0          
T        Si     0.884066666667     0.874333333333     0.763950000000     0          
T        Si     0.961300000000     0.990700000000     0.961150000000     0          
T        Si     0.715100000000     0.875500000000     0.827400000000     0          
T        Si     0.991466666667     0.791466666667     0.909300000000     0          
T        Si     0.744166666667     0.676400000000     0.879000000000     0          
O        O      0.098566666667     0.250000000000     0.425100000000     0          
O        O      0.082800000000     0.306100000000     0.459500000000     0          
O        O      0.165666666667     0.295200000000     0.438200000000     0          
O        O      0.098866666667     0.316400000000     0.403400000000     0          
O        O      0.227700000000     0.250000000000     0.257450000000     0          
O        O      0.228266666667     0.316000000000     0.235100000000     0          
O        O      0.164166666667     0.297366666667     0.272850000000     0          
O        O      0.320833333333     0.152100000000     0.436750000000     0          
O        O      0.255100000000     0.200100000000     0.445900000000     0          
O        O      0.054266666667     0.250000000000     0.339150000000     0          
O        O      0.051633333333     0.180833333333     0.354400000000     0          
O        O      0.319466666667     0.083333333333     0.420400000000     0          
O        O      0.118166666667     0.133700000000     0.364000000000     0          
O        O      0.041033333333     0.129700000000     0.394050000000     0          
O        O      0.068100000000     0.083333333333     0.175100000000     0          
O        O      0.083866666667     0.027233333333     0.209500000000     0          
O        O      0.001000000000     0.038133333333     0.188200000000     0          
O        O      0.067800000000     0.016933333333     0.153400000000     0          
O        O      0.272300000000     0.083333333333     0.007450000000     0          
O        O      0.271733333333     0.017333333333     0.485100000000     0          
O        O      0.002500000000     0.035966666667     0.022850000000     0          
O        O      0.179166666667     0.181233333333     0.186750000000     0          
O        O      0.244900000000     0.133233333333     0.195900000000     0          
O        O      0.112400000000     0.083333333333     0.089150000000     0          
O        O      0.115033333333     0.152500000000     0.104400000000     0          
O        O      0.180533333333     0.250000000000     0.170400000000     0          
O        O      0.048500000000     0.199633333333     0.114000000000     0          
O        O      0.125633333333     0.203633333333     0.144050000000     0          
O        O      0.265233333333     0.250000000000     0.324900000000     0          
O        O      0.249466666667     0.193900000000     0.290500000000     0          
O        O      0.332333333333     0.204800000000     0.311800000000     0          
O        O      0.265533333333     0.183600000000     0.346600000000     0          
O        O      0.061033333333     0.250000000000     0.492550000000     0          
O        O      0.061600000000     0.184000000000     0.014900000000     0          
O        O      0.330833333333     0.202633333333     0.477150000000     0          
O        O      0.154166666667     0.014566666667     0.313250000000     0          
O        O      0.088433333333     0.299900000000     0.304100000000     0          
O        O      0.220933333333     0.250000000000     0.410850000000     0          
O        O      0.218300000000     0.319166666667     0.395600000000     0          
O        O      0.152800000000     0.083333333333     0.329600000000     0          
O        O      0.284833333333     0.032966666667     0.386000000000     0          
O        O      0.207700000000     0.036966666667     0.355950000000     0          
O        O      0.234766666667     0.083333333333     0.074900000000     0          
O        O      0.250533333333     0.139433333333     0.040500000000     0          
O        O      0.167666666667     0.128533333333     0.061800000000     0          
O        O      0.234466666667     0.149733333333     0.096600000000     0          
O        O      0.105633333333     0.083333333333     0.242550000000     0          
O        O      0.105066666667     0.149333333333     0.264900000000     0          
O        O      0.169166666667     0.130700000000     0.227150000000     0          
O        O      0.012500000000     0.318766666667     0.063250000000     0          
O        O      0.078233333333     0.033433333333     0.054100000000     0          
O        O      0.279066666667     0.083333333333     0.160850000000     0          
O        O      0.281700000000     0.014166666667     0.145600000000     0          
O        O      0.013866666667     0.250000000000     0.079600000000     0          
O        O      0.215166666667     0.300366666667     0.136000000000     0          
O        O      0.292300000000     0.296366666667     0.105950000000     0          
O        O      0.250533333333     0.027233333333     0.040500000000     0          
O        O      0.167666666667     0.038133333333     0.061800000000     0          
O        O      0.234466666667     0.016933333333     0.096600000000     0          
O        O      0.105066666667     0.017333333333     0.264900000000     0          
O        O      0.169166666667     0.035966666667     0.227150000000     0          
O        O      0.012500000000     0.181233333333     0.063250000000     0          
O        O      0.078233333333     0.133233333333     0.054100000000     0          
O        O      0.281700000000     0.152500000000     0.145600000000     0          
O        O      0.215166666667     0.199633333333     0.136000000000     0          
O        O      0.292300000000     0.203633333333     0.105950000000     0          
O        O      0.249466666667     0.306100000000     0.290500000000     0          
O        O      0.332333333333     0.295200000000     0.311800000000     0          
O        O      0.265533333333     0.316400000000     0.346600000000     0          
O        O      0.061600000000     0.316000000000     0.014900000000     0          
O        O      0.330833333333     0.297366666667     0.477150000000     0          
O        O      0.154166666667     0.152100000000     0.313250000000     0          
O        O      0.088433333333     0.200100000000     0.304100000000     0          
O        O      0.218300000000     0.180833333333     0.395600000000     0          
O        O      0.284833333333     0.133700000000     0.386000000000     0          
O        O      0.207700000000     0.129700000000     0.355950000000     0          
O        O      0.083866666667     0.139433333333     0.209500000000     0          
O        O      0.001000000000     0.128533333333     0.188200000000     0          
O        O      0.067800000000     0.149733333333     0.153400000000     0          
O        O      0.271733333333     0.149333333333     0.485100000000     0          
O        O      0.002500000000     0.130700000000     0.022850000000     0          
O        O      0.179166666667     0.318766666667     0.186750000000     0          
O        O      0.244900000000     0.033433333333     0.195900000000     0          
O        O      0.115033333333     0.014166666667     0.104400000000     0          
O        O      0.048500000000     0.300366666667     0.114000000000     0          
O        O      0.125633333333     0.296366666667     0.144050000000     0          
O        O      0.082800000000     0.193900000000     0.459500000000     0          
O        O      0.165666666667     0.204800000000     0.438200000000     0          
O        O      0.098866666667     0.183600000000     0.403400000000     0          
O        O      0.228266666667     0.184000000000     0.235100000000     0          
O        O      0.164166666667     0.202633333333     0.272850000000     0          
O        O      0.320833333333     0.014566666667     0.436750000000     0          
O        O      0.255100000000     0.299900000000     0.445900000000     0          
O        O      0.051633333333     0.319166666667     0.354400000000     0          
O        O      0.118166666667     0.032966666667     0.364000000000     0          
O        O      0.041033333333     0.036966666667     0.394050000000     0          
O        O      0.098566666667     0.250000000000     0.925100000000     0          
O        O      0.082800000000     0.306100000000     0.959500000000     0          
O        O      0.165666666667     0.295200000000     0.938200000000     0          
O        O      0.098866666667     0.316400000000     0.903400000000     0          
O        O      0.227700000000     0.250000000000     0.757450000000     0          
O        O      0.228266666667     0.316000000000     0.735100000000     0          
O        O      0.164166666667     0.297366666667     0.772850000000     0          
O        O      0.320833333333     0.152100000000     0.936750000000     0          
O        O      0.255100000000     0.200100000000     0.945900000000     0          
O        O      0.054266666667     0.250000000000     0.839150000000     0          
O        O      0.051633333333     0.180833333333     0.854400000000     0          
O        O      0.319466666667     0.083333333333     0.920400000000     0          
O        O      0.118166666667     0.133700000000     0.864000000000     0          
O        O      0.041033333333     0.129700000000     0.894050000000     0          
O        O      0.068100000000     0.083333333333     0.675100000000     0          
O        O      0.083866666667     0.027233333333     0.709500000000     0          
O        O      0.001000000000     0.038133333333     0.688200000000     0          
O        O      0.067800000000     0.016933333333     0.653400000000     0          
O        O      0.272300000000     0.083333333333     0.507450000000     0          
O        O      0.271733333333     0.017333333333     0.985100000000     0          
O        O      0.002500000000     0.035966666667     0.522850000000     0          
O        O      0.179166666667     0.181233333333     0.686750000000     0          
O        O      0.244900000000     0.133233333333     0.695900000000     0          
O        O      0.112400000000     0.083333333333     0.589150000000     0          
O        O      0.115033333333     0.152500000000     0.604400000000     0          
O        O      0.180533333333     0.250000000000     0.670400000000     0          
O        O      0.048500000000     0.199633333333     0.614000000000     0          
O        O      0.125633333333     0.203633333333     0.644050000000     0          
O        O      0.265233333333     0.250000000000     0.824900000000     0          
O        O      0.249466666667     0.193900000000     0.790500000000     0          
O        O      0.332333333333     0.204800000000     0.811800000000     0          
O        O      0.265533333333     0.183600000000     0.846600000000     0          
O        O      0.061033333333     0.250000000000     0.992550000000     0          
O        O      0.061600000000     0.184000000000     0.514900000000     0          
O        O      0.330833333333     0.202633333333     0.977150000000     0          
O        O      0.154166666667     0.014566666667     0.813250000000     0          
O        O      0.088433333333     0.299900000000     0.804100000000     0          
O        O      0.220933333333     0.250000000000     0.910850000000     0          
O        O      0.218300000000     0.319166666667     0.895600000000     0          
O        O      0.152800000000     0.083333333333     0.829600000000     0          
O        O      0.284833333333     0.032966666667     0.886000000000     0          
O        O      0.207700000000     0.036966666667     0.855950000000     0          
O        O      0.234766666667     0.083333333333     0.574900000000     0          
O        O      0.250533333333     0.139433333333     0.540500000000     0          
O        O      0.167666666667     0.128533333333     0.561800000000     0          
O        O      0.234466666667     0.149733333333     0.596600000000     0          
O        O      0.105633333333     0.083333333333     0.742550000000     0          
O        O      0.105066666667     0.149333333333     0.764900000000     0          
O        O      0.169166666667     0.130700000000     0.727150000000     0          
O        O      0.012500000000     0.318766666667     0.563250000000     0          
O        O      0.078233333333     0.033433333333     0.554100000000     0          
O        O      0.279066666667     0.083333333333     0.660850000000     0          
O        O      0.281700000000     0.014166666667     0.645600000000     0          
O        O      0.013866666667     0.250000000000     0.579600000000     0          
O        O      0.215166666667     0.300366666667     0.636000000000     0          
O        O      0.292300000000     0.296366666667     0.605950000000     0          
O        O      0.250533333333     0.027233333333     0.540500000000     0          
O        O      0.167666666667     0.038133333333     0.561800000000     0          
O        O      0.234466666667     0.016933333333     0.596600000000     0          
O        O      0.105066666667     0.017333333333     0.764900000000     0          
O        O      0.169166666667     0.035966666667     0.727150000000     0          
O        O      0.012500000000     0.181233333333     0.563250000000     0          
O        O      0.078233333333     0.133233333333     0.554100000000     0          
O        O      0.281700000000     0.152500000000     0.645600000000     0          
O        O      0.215166666667     0.199633333333     0.636000000000     0          
O        O      0.292300000000     0.203633333333     0.605950000000     0          
O        O      0.249466666667     0.306100000000     0.790500000000     0          
O        O      0.332333333333     0.295200000000     0.811800000000     0          
O        O      0.265533333333     0.316400000000     0.846600000000     0          
O        O      0.061600000000     0.316000000000     0.514900000000     0          
O        O      0.330833333333     0.297366666667     0.977150000000     0          
O        O      0.154166666667     0.152100000000     0.813250000000     0          
O        O      0.088433333333     0.200100000000     0.804100000000     0          
O        O      0.218300000000     0.180833333333     0.895600000000     0          
O        O      0.284833333333     0.133700000000     0.886000000000     0          
O        O      0.207700000000     0.129700000000     0.855950000000     0          
O        O      0.083866666667     0.139433333333     0.709500000000     0          
O        O      0.001000000000     0.128533333333     0.688200000000     0          
O        O      0.067800000000     0.149733333333     0.653400000000     0          
O        O      0.271733333333     0.149333333333     0.985100000000     0          
O        O      0.002500000000     0.130700000000     0.522850000000     0          
O        O      0.179166666667     0.318766666667     0.686750000000     0          
O        O      0.244900000000     0.033433333333     0.695900000000     0          
O        O      0.115033333333     0.014166666667     0.604400000000     0          
O        O      0.048500000000     0.300366666667     0.614000000000     0          
O        O      0.125633333333     0.296366666667     0.644050000000     0          
O        O      0.082800000000     0.193900000000     0.959500000000     0          
O        O      0.165666666667     0.204800000000     0.938200000000     0          
O        O      0.098866666667     0.183600000000     0.903400000000     0          
O        O      0.228266666667     0.184000000000     0.735100000000     0          
O        O      0.164166666667     0.202633333333     0.772850000000     0          
O        O      0.320833333333     0.014566666667     0.936750000000     0          
O        O      0.255100000000     0.299900000000     0.945900000000     0          
O        O      0.051633333333     0.319166666667     0.854400000000     0          
O        O      0.118166666667     0.032966666667     0.864000000000     0          
O        O      0.041033333333     0.036966666667     0.894050000000     0          
O        O      0.098566666667     0.583333333333     0.425100000000     0          
O        O      0.082800000000     0.639433333333     0.459500000000     0          
O        O      0.165666666667     0.628533333333     0.438200000000     0          
O        O      0.098866666667     0.649733333333     0.403400000000     0          
O        O      0.227700000000     0.583333333333     0.257450000000     0          
O        O      0.228266666667     0.649333333333     0.235100000000     0          
O        O      0.164166666667     0.630700000000     0.272850000000     0          
O        O      0.320833333333     0.485433333333     0.436750000000     0          
O        O      0.255100000000     0.533433333333     0.445900000000     0          
O        O      0.054266666667     0.583333333333     0.339150000000     0          
O        O      0.051633333333     0.514166666667     0.354400000000     0          
O        O      0.319466666667     0.416666666667     0.420400000000     0          
O        O      0.118166666667     0.467033333333     0.364000000000     0          
O        O      0.041033333333     0.463033333333     0.394050000000     0          
O        O      0.068100000000     0.416666666667     0.175100000000     0          
O        O      0.083866666667     0.360566666667     0.209500000000     0          
O        O      0.001000000000     0.371466666667     0.188200000000     0          
O        O      0.067800000000     0.350266666667     0.153400000000     0          
O        O      0.272300000000     0.416666666667     0.007450000000     0          
O        O      0.271733333333     0.350666666667     0.485100000000     0          
O        O      0.002500000000     0.369300000000     0.022850000000     0          
O        O      0.179166666667     0.514566666667     0.186750000000     0          
O        O      0.244900000000     0.466566666667     0.195900000000     0          
O        O      0.112400000000     0.416666666667     0.089150000000     0          
O        O      0.115033333333     0.485833333333     0.104400000000     0          
O        O      0.180533333333     0.583333333333     0.170400000000     0          
O        O      0.048500000000     0.532966666667     0.114000000000     0          
O        O      0.125633333333     0.536966666667     0.144050000000     0          
O        O      0.265233333333     0.583333333333     0.324900000000     0          
O        O      0.249466666667     0.527233333333     0.290500000000     0          
O        O      0.332333333333     0.538133333333     0.311800000000     0          
O        O      0.265533333333     0.516933333333     0.346600000000     0          
O        O      0.061033333333     0.583333333333     0.492550000000     0          
O        O      0.061600000000     0.517333333333     0.014900000000     0          
O        O      0.330833333333     0.535966666667     0.477150000000     0          
O        O      0.154166666667     0.347900000000     0.313250000000     0          
O        O      0.088433333333     0.633233333333     0.304100000000     0          
O        O      0.220933333333     0.583333333333     0.410850000000     0          
O        O      0.218300000000     0.652500000000     0.395600000000     0          
O        O      0.152800000000     0.416666666667     0.329600000000     0          
O        O      0.284833333333     0.366300000000     0.386000000000     0          
O        O      0.207700000000     0.370300000000     0.355950000000     0          
O        O      0.234766666667     0.416666666667     0.074900000000     0          
O        O      0.250533333333     0.472766666667     0.040500000000     0          
O        O      0.167666666667     0.461866666667     0.061800000000     0          
O        O      0.234466666667     0.483066666667     0.096600000000     0          
O        O      0.105633333333     0.416666666667     0.242550000000     0          
O        O      0.105066666667     0.482666666667     0.264900000000     0          
O        O      0.169166666667     0.464033333333     0.227150000000     0          
O        O      0.012500000000     0.652100000000     0.063250000000     0          
O        O      0.078233333333     0.366766666667     0.054100000000     0          
O        O      0.279066666667     0.416666666667     0.160850000000     0          
O        O      0.281700000000     0.347500000000     0.145600000000     0          
O        O      0.013866666667     0.583333333333     0.079600000000     0          
O        O      0.215166666667     0.633700000000     0.136000000000     0          
O        O      0.292300000000     0.629700000000     0.105950000000     0          
O        O      0.250533333333     0.360566666667     0.040500000000     0          
O        O      0.167666666667     0.371466666667     0.061800000000     0          
O        O      0.234466666667     0.350266666667     0.096600000000     0          
O        O      0.105066666667     0.350666666667     0.264900000000     0          
O        O      0.169166666667     0.369300000000     0.227150000000     0          
O        O      0.012500000000     0.514566666667     0.063250000000     0          
O        O      0.078233333333     0.466566666667     0.054100000000     0          
O        O      0.281700000000     0.485833333333     0.145600000000     0          
O        O      0.215166666667     0.532966666667     0.136000000000     0          
O        O      0.292300000000     0.536966666667     0.105950000000     0          
O        O      0.249466666667     0.639433333333     0.290500000000     0          
O        O      0.332333333333     0.628533333333     0.311800000000     0          
O        O      0.265533333333     0.649733333333     0.346600000000     0          
O        O      0.061600000000     0.649333333333     0.014900000000     0          
O        O      0.330833333333     0.630700000000     0.477150000000     0          
O        O      0.154166666667     0.485433333333     0.313250000000     0          
O        O      0.088433333333     0.533433333333     0.304100000000     0          
O        O      0.218300000000     0.514166666667     0.395600000000     0          
O        O      0.284833333333     0.467033333333     0.386000000000     0          
O        O      0.207700000000     0.463033333333     0.355950000000     0          
O        O      0.083866666667     0.472766666667     0.209500000000     0          
O        O      0.001000000000     0.461866666667     0.188200000000     0          
O        O      0.067800000000     0.483066666667     0.153400000000     0          
O        O      0.271733333333     0.482666666667     0.485100000000     0          
O        O      0.002500000000     0.464033333333     0.022850000000     0          
O        O      0.179166666667     0.652100000000     0.186750000000     0          
O        O      0.244900000000     0.366766666667     0.195900000000     0          
O        O      0.115033333333     0.347500000000     0.104400000000     0          
O        O      0.048500000000     0.633700000000     0.114000000000     0          
O        O      0.125633333333     0.629700000000     0.144050000000     0          
O        O      0.082800000000     0.527233333333     0.459500000000     0          
O        O      0.165666666667     0.538133333333     0.438200000000     0          
O        O      0.098866666667     0.516933333333     0.403400000000     0          
O        O      0.228266666667     0.517333333333     0.235100000000     0          
O        O      0.164166666667     0.535966666667     0.272850000000     0          
O        O      0.320833333333     0.347900000000     0.436750000000     0          
O        O      0.255100000000     0.633233333333     0.445900000000     0          
O        O      0.051633333333     0.652500000000     0.354400000000     0          
O        O      0.118166666667     0.366300000000     0.364000000000     0          
O        O      0.041033333333     0.370300000000     0.394050000000     0          
O        O      0.098566666667     0.583333333333     0.925100000000     0          
O        O      0.082800000000     0.639433333333     0.959500000000     0          
O        O      0.165666666667     0.628533333333     0.938200000000     0          
O        O      0.098866666667     0.649733333333     0.903400000000     0          
O        O      0.227700000000     0.583333333333     0.757450000000     0          
O        O      0.228266666667     0.649333333333     0.735100000000     0          
O        O      0.164166666667     0.630700000000     0.772850000000     0          
O        O      0.320833333333     0.485433333333     0.936750000000     0          
O        O      0.255100000000     0.533433333333     0.945900000000     0          
O        O      0.054266666667     0.583333333333     0.839150000000     0          
O        O      0.051633333333     0.514166666667     0.854400000000     0          
O        O      0.319466666667     0.416666666667     0.920400000000     0          
O        O      0.118166666667     0.467033333333     0.864000000000     0          
O        O      0.041033333333     0.463033333333     0.894050000000     0          
O        O      0.068100000000     0.416666666667     0.675100000000     0          
O        O      0.083866666667     0.360566666667     0.709500000000     0          
O        O      0.001000000000     0.371466666667     0.688200000000     0          
O        O      0.067800000000     0.350266666667     0.653400000000     0          
O        O      0.272300000000     0.416666666667     0.507450000000     0          
O        O      0.271733333333     0.350666666667     0.985100000000     0          
O        O      0.002500000000     0.369300000000     0.522850000000     0          
O        O      0.179166666667     0.514566666667     0.686750000000     0          
O        O      0.244900000000     0.466566666667     0.695900000000     0          
O        O      0.112400000000     0.416666666667     0.589150000000     0          
O        O      0.115033333333     0.485833333333     0.604400000000     0          
O        O      0.180533333333     0.583333333333     0.670400000000     0          
O        O      0.048500000000     0.532966666667     0.614000000000     0          
O        O      0.125633333333     0.536966666667     0.644050000000     0          
O        O      0.265233333333     0.583333333333     0.824900000000     0          
O        O      0.249466666667     0.527233333333     0.790500000000     0          
O        O      0.332333333333     0.538133333333     0.811800000000     0          
O        O      0.265533333333     0.516933333333     0.846600000000     0          
O        O      0.061033333333     0.583333333333     0.992550000000     0          
O        O      0.061600000000     0.517333333333     0.514900000000     0          
O        O      0.330833333333     0.535966666667     0.977150000000     0          
O        O      0.154166666667     0.347900000000     0.813250000000     0          
O        O      0.088433333333     0.633233333333     0.804100000000     0          
O        O      0.220933333333     0.583333333333     0.910850000000     0          
O        O      0.218300000000     0.652500000000     0.895600000000     0          
O        O      0.152800000000     0.416666666667     0.829600000000     0          
O        O      0.284833333333     0.366300000000     0.886000000000     0          
O        O      0.207700000000     0.370300000000     0.855950000000     0          
O        O      0.234766666667     0.416666666667     0.574900000000     0          
O        O      0.250533333333     0.472766666667     0.540500000000     0          
O        O      0.167666666667     0.461866666667     0.561800000000     0          
O        O      0.234466666667     0.483066666667     0.596600000000     0          
O        O      0.105633333333     0.416666666667     0.742550000000     0          
O        O      0.105066666667     0.482666666667     0.764900000000     0          
O        O      0.169166666667     0.464033333333     0.727150000000     0          
O        O      0.012500000000     0.652100000000     0.563250000000     0          
O        O      0.078233333333     0.366766666667     0.554100000000     0          
O        O      0.279066666667     0.416666666667     0.660850000000     0          
O        O      0.281700000000     0.347500000000     0.645600000000     0          
O        O      0.013866666667     0.583333333333     0.579600000000     0          
O        O      0.215166666667     0.633700000000     0.636000000000     0          
O        O      0.292300000000     0.629700000000     0.605950000000     0          
O        O      0.250533333333     0.360566666667     0.540500000000     0          
O        O      0.167666666667     0.371466666667     0.561800000000     0          
O        O      0.234466666667     0.350266666667     0.596600000000     0          
O        O      0.105066666667     0.350666666667     0.764900000000     0          
O        O      0.169166666667     0.369300000000     0.727150000000     0          
O        O      0.012500000000     0.514566666667     0.563250000000     0          
O        O      0.078233333333     0.466566666667     0.554100000000     0          
O        O      0.281700000000     0.485833333333     0.645600000000     0          
O        O      0.215166666667     0.532966666667     0.636000000000     0          
O        O      0.292300000000     0.536966666667     0.605950000000     0          
O        O      0.249466666667     0.639433333333     0.790500000000     0          
O        O      0.332333333333     0.628533333333     0.811800000000     0          
O        O      0.265533333333     0.649733333333     0.846600000000     0          
O        O      0.061600000000     0.649333333333     0.514900000000     0          
O        O      0.330833333333     0.630700000000     0.977150000000     0          
O        O      0.154166666667     0.485433333333     0.813250000000     0          
O        O      0.088433333333     0.533433333333     0.804100000000     0          
O        O      0.218300000000     0.514166666667     0.895600000000     0          
O        O      0.284833333333     0.467033333333     0.886000000000     0          
O        O      0.207700000000     0.463033333333     0.855950000000     0          
O        O      0.083866666667     0.472766666667     0.709500000000     0          
O        O      0.001000000000     0.461866666667     0.688200000000     0          
O        O      0.067800000000     0.483066666667     0.653400000000     0          
O        O      0.271733333333     0.482666666667     0.985100000000     0          
O        O      0.002500000000     0.464033333333     0.522850000000     0          
O        O      0.179166666667     0.652100000000     0.686750000000     0          
O        O      0.244900000000     0.366766666667     0.695900000000     0          
O        O      0.115033333333     0.347500000000     0.604400000000     0          
O        O      0.048500000000     0.633700000000     0.614000000000     0          
O        O      0.125633333333     0.629700000000     0.644050000000     0          
O        O      0.082800000000     0.527233333333     0.959500000000     0          
O        O      0.165666666667     0.538133333333     0.938200000000     0          
O        O      0.098866666667     0.516933333333     0.903400000000     0          
O        O      0.228266666667     0.517333333333     0.735100000000     0          
O        O      0.164166666667     0.535966666667     0.772850000000     0          
O        O      0.320833333333     0.347900000000     0.936750000000     0          
O        O      0.255100000000     0.633233333333     0.945900000000     0          
O        O      0.051633333333     0.652500000000     0.854400000000     0          
O        O      0.118166666667     0.366300000000     0.864000000000     0          
O        O      0.041033333333     0.370300000000     0.894050000000     0          
O        O      0.098566666667     0.916666666667     0.425100000000     0          
O        O      0.082800000000     0.972766666667     0.459500000000     0          
O        O      0.165666666667     0.961866666667     0.438200000000     0          
O        O      0.098866666667     0.983066666667     0.403400000000     0          
O        O      0.227700000000     0.916666666667     0.257450000000     0          
O        O      0.228266666667     0.982666666667     0.235100000000     0          
O        O      0.164166666667     0.964033333333     0.272850000000     0          
O        O      0.320833333333     0.818766666667     0.436750000000     0          
O        O      0.255100000000     0.866766666667     0.445900000000     0          
O        O      0.054266666667     0.916666666667     0.339150000000     0          
O        O      0.051633333333     0.847500000000     0.354400000000     0          
O        O      0.319466666667     0.750000000000     0.420400000000     0          
O        O      0.118166666667     0.800366666667     0.364000000000     0          
O        O      0.041033333333     0.796366666667     0.394050000000     0          
O        O      0.068100000000     0.750000000000     0.175100000000     0          
O        O      0.083866666667     0.693900000000     0.209500000000     0          
O        O      0.001000000000     0.704800000000     0.188200000000     0          
O        O      0.067800000000     0.683600000000     0.153400000000     0          
O        O      0.272300000000     0.750000000000     0.007450000000     0          
O        O      0.271733333333     0.684000000000     0.485100000000     0          
O        O      0.002500000000     0.702633333333     0.022850000000     0          
O        O      0.179166666667     0.847900000000     0.186750000000     0          
O        O      0.244900000000     0.799900000000     0.195900000000     0          
O        O      0.112400000000     0.750000000000     0.089150000000     0          
O        O      0.115033333333     0.819166666667     0.104400000000     0          
O        O      0.180533333333     0.916666666667     0.170400000000     0          
O        O      0.048500000000     0.866300000000     0.114000000000     0          
O        O      0.125633333333     0.870300000000     0.144050000000     0          
O        O      0.265233333333     0.916666666667     0.324900000000     0          
O        O      0.249466666667     0.860566666667     0.290500000000     0          
O        O      0.332333333333     0.871466666667     0.311800000000     0          
O        O      0.265533333333     0.850266666667     0.346600000000     0          
O        O      0.061033333333     0.916666666667     0.492550000000     0          
O        O      0.061600000000     0.850666666667     0.014900000000     0          
O        O      0.330833333333     0.869300000000     0.477150000000     0          
O        O      0.154166666667     0.681233333333     0.313250000000     0          
O        O      0.088433333333     0.966566666667     0.304100000000     0          
O        O      0.220933333333     0.916666666667     0.410850000000     0          
O        O      0.218300000000     0.985833333333     0.395600000000     0          
O        O      0.152800000000     0.750000000000     0.329600000000     0          
O        O      0.284833333333     0.699633333333     0.386000000000     0          
O        O      0.207700000000     0.703633333333     0.355950000000     0          
O        O      0.234766666667     0.750000000000     0.074900000000     0          
O        O      0.250533333333     0.806100000000     0.040500000000     0          
O        O      0.167666666667     0.795200000000     0.061800000000     0          
O        O      0.234466666667     0.816400000000     0.096600000000     0          
O        O      0.105633333333     0.750000000000     0.242550000000     0          
O        O      0.105066666667     0.816000000000     0.264900000000     0          
O        O      0.169166666667     0.797366666667     0.227150000000     0          
O        O      0.012500000000     0.985433333333     0.063250000000     0          
O        O      0.078233333333     0.700100000000     0.054100000000     0          
O        O      0.279066666667     0.750000000000     0.160850000000     0          
O        O      0.281700000000     0.680833333333     0.145600000000     0          
O        O      0.013866666667     0.916666666667     0.079600000000     0          
O        O      0.215166666667     0.967033333333     0.136000000000     0          
O        O      0.292300000000     0.963033333333     0.105950000000     0          
O        O      0.250533333333     0.693900000000     0.040500000000     0          
O        O      0.167666666667     0.704800000000     0.061800000000     0          
O        O      0.234466666667     0.683600000000     0.096600000000     0          
O        O      0.105066666667     0.684000000000     0.264900000000     0          
O        O      0.169166666667     0.702633333333     0.227150000000     0          
O        O      0.012500000000     0.847900000000     0.063250000000     0          
O        O      0.078233333333     0.799900000000     0.054100000000     0          
O        O      0.281700000000     0.819166666667     0.145600000000     0          
O        O      0.215166666667     0.866300000000     0.136000000000     0          
O        O      0.292300000000     0.870300000000     0.105950000000     0          
O        O      0.249466666667     0.972766666667     0.290500000000     0          
O        O      0.332333333333     0.961866666667     0.311800000000     0          
O        O      0.265533333333     0.983066666667     0.346600000000     0          
O        O      0.061600000000     0.982666666667     0.014900000000     0          
O        O      0.330833333333     0.964033333333     0.477150000000     0          
O        O      0.154166666667     0.818766666667     0.313250000000     0          
O        O      0.088433333333     0.866766666667     0.304100000000     0          
O        O      0.218300000000     0.847500000000     0.395600000000     0          
O        O      0.284833333333     0.800366666667     0.386000000000     0          
O        O      0.207700000000     0.796366666667     0.355950000000     0          
O        O      0.083866666667     0.806100000000     0.209500000000     0          
O        O      0.001000000000     0.795200000000     0.188200000000     0          
O        O      0.067800000000     0.816400000000     0.153400000000     0          
O        O      0.271733333333     0.816000000000     0.485100000000     0          
O        O      0.002500000000     0.797366666667     0.022850000000     0          
O        O      0.179166666667     0.985433333333     0.186750000000     0          
O        O      0.244900000000     0.700100000000     0.195900000000     0          
O        O      0.115033333333     0.680833333333     0.104400000000     0          
O        O      0.048500000000     0.967033333333     0.114000000000     0          
O        O      0.125633333333     0.963033333333     0.144050000000     0          
O        O      0.082800000000     0.860566666667     0.459500000000     0          
O        O      0.165666666667     0.871466666667     0.438200000000     0          
O        O      0.098866666667     0.850266666667     0.403400000000     0          
O        O      0.228266666667     0.850666666667     0.235100000000     0          
O        O      0.164166666667     0.869300000000     0.272850000000     0          
O        O      0.320833333333     0.681233333333     0.436750000000     0          
O        O      0.255100000000     0.966566666667     0.445900000000     0          
O        O      0.051633333333     0.985833333333     0.354400000000     0          
O        O      0.118166666667     0.699633333333     0.364000000000     0          
O        O      0.041033333333     0.703633333333     0.394050000000     0          
O        O      0.098566666667     0.916666666667     0.925100000000     0          
O        O      0.082800000000     0.972766666667     0.959500000000     0          
O        O      0.165666666667     0.961866666667     0.938200000000     0          
O        O      0.098866666667     0.983066666667     0.903400000000     0          
O        O      0.227700000000     0.916666666667     0.757450000000     0          
O        O      0.228266666667     0.982666666667     0.735100000000     0          
O        O      0.164166666667     0.964033333333     0.772850000000     0          
O        O      0.320833333333     0.818766666667     0.936750000000     0          
O        O      0.255100000000     0.866766666667     0.945900000000     0          
O        O      0.054266666667     0.916666666667     0.839150000000     0          
O        O      0.051633333333     0.847500000000     0.854400000000     0          
O        O      0.319466666667     0.750000000000     0.920400000000     0          
O        O      0.118166666667     0.800366666667     0.864000000000     0          
O        O      0.041033333333     0.796366666667     0.894050000000     0          
O        O      0.068100000000     0.750000000000     0.675100000000     0          
O        O      0.083866666667     0.693900000000     0.709500000000     0          
O        O      0.001000000000     0.704800000000     0.688200000000     0          
O        O      0.067800000000     0.683600000000     0.653400000000     0          
O        O      0.272300000000     0.750000000000     0.507450000000     0          
O        O      0.271733333333     0.684000000000     0.985100000000     0          
O        O      0.002500000000     0.702633333333     0.522850000000     0          
O        O      0.179166666667     0.847900000000     0.686750000000     0          
O        O      0.244900000000     0.799900000000     0.695900000000     0          
O        O      0.112400000000     0.750000000000     0.589150000000     0          
O        O      0.115033333333     0.819166666667     0.604400000000     0          
O        O      0.180533333333     0.916666666667     0.670400000000     0          
O        O      0.048500000000     0.866300000000     0.614000000000     0          
O        O      0.125633333333     0.870300000000     0.644050000000     0          
O        O      0.265233333333     0.916666666667     0.824900000000     0          
O        O      0.249466666667     0.860566666667     0.790500000000     0          
O        O      0.332333333333     0.871466666667     0.811800000000     0          
O        O      0.265533333333     0.850266666667     0.846600000000     0          
O        O      0.061033333333     0.916666666667     0.992550000000     0          
O        O      0.061600000000     0.850666666667     0.514900000000     0          
O        O      0.330833333333     0.869300000000     0.977150000000     0          
O        O      0.154166666667     0.681233333333     0.813250000000     0          
O        O      0.088433333333     0.966566666667     0.804100000000     0          
O        O      0.220933333333     0.916666666667     0.910850000000     0          
O        O      0.218300000000     0.985833333333     0.895600000000     0          
O        O      0.152800000000     0.750000000000     0.829600000000     0          
O        O      0.284833333333     0.699633333333     0.886000000000     0          
O        O      0.207700000000     0.703633333333     0.855950000000     0          
O        O      0.234766666667     0.750000000000     0.574900000000     0          
O        O      0.250533333333     0.806100000000     0.540500000000     0          
O        O      0.167666666667     0.795200000000     0.561800000000     0          
O        O      0.234466666667     0.816400000000     0.596600000000     0          
O        O      0.105633333333     0.750000000000     0.742550000000     0          
O        O      0.105066666667     0.816000000000     0.764900000000     0          
O        O      0.169166666667     0.797366666667     0.727150000000     0          
O        O      0.012500000000     0.985433333333     0.563250000000     0          
O        O      0.078233333333     0.700100000000     0.554100000000     0          
O        O      0.279066666667     0.750000000000     0.660850000000     0          
O        O      0.281700000000     0.680833333333     0.645600000000     0          
O        O      0.013866666667     0.916666666667     0.579600000000     0          
O        O      0.215166666667     0.967033333333     0.636000000000     0          
O        O      0.292300000000     0.963033333333     0.605950000000     0          
O        O      0.250533333333     0.693900000000     0.540500000000     0          
O        O      0.167666666667     0.704800000000     0.561800000000     0          
O        O      0.234466666667     0.683600000000     0.596600000000     0          
O        O      0.105066666667     0.684000000000     0.764900000000     0          
O        O      0.169166666667     0.702633333333     0.727150000000     0          
O        O      0.012500000000     0.847900000000     0.563250000000     0          
O        O      0.078233333333     0.799900000000     0.554100000000     0          
O        O      0.281700000000     0.819166666667     0.645600000000     0          
O        O      0.215166666667     0.866300000000     0.636000000000     0          
O        O      0.292300000000     0.870300000000     0.605950000000     0          
O        O      0.249466666667     0.972766666667     0.790500000000     0          
O        O      0.332333333333     0.961866666667     0.811800000000     0          
O        O      0.265533333333     0.983066666667     0.846600000000     0          
O        O      0.061600000000     0.982666666667     0.514900000000     0          
O        O      0.330833333333     0.964033333333     0.977150000000     0          
O        O      0.154166666667     0.818766666667     0.813250000000     0          
O        O      0.088433333333     0.866766666667     0.804100000000     0          
O        O      0.218300000000     0.847500000000     0.895600000000     0          
O        O      0.284833333333     0.800366666667     0.886000000000     0          
O        O      0.207700000000     0.796366666667     0.855950000000     0          
O        O      0.083866666667     0.806100000000     0.709500000000     0          
O        O      0.001000000000     0.795200000000     0.688200000000     0          
O        O      0.067800000000     0.816400000000     0.653400000000     0          
O        O      0.271733333333     0.816000000000     0.985100000000     0          
O        O      0.002500000000     0.797366666667     0.522850000000     0          
O        O      0.179166666667     0.985433333333     0.686750000000     0          
O        O      0.244900000000     0.700100000000     0.695900000000     0          
O        O      0.115033333333     0.680833333333     0.604400000000     0          
O        O      0.048500000000     0.967033333333     0.614000000000     0          
O        O      0.125633333333     0.963033333333     0.644050000000     0          
O        O      0.082800000000     0.860566666667     0.959500000000     0          
O        O      0.165666666667     0.871466666667     0.938200000000     0          
O        O      0.098866666667     0.850266666667     0.903400000000     0          
O        O      0.228266666667     0.850666666667     0.735100000000     0          
O        O      0.164166666667     0.869300000000     0.772850000000     0          
O        O      0.320833333333     0.681233333333     0.936750000000     0          
O        O      0.255100000000     0.966566666667     0.945900000000     0          
O        O      0.051633333333     0.985833333333     0.854400000000     0          
O        O      0.118166666667     0.699633333333     0.864000000000     0          
O        O      0.041033333333     0.703633333333     0.894050000000     0          
O        O      0.431900000000     0.250000000000     0.425100000000     0          
O        O      0.416133333333     0.306100000000     0.459500000000     0          
O        O      0.499000000000     0.295200000000     0.438200000000     0          
O        O      0.432200000000     0.316400000000     0.403400000000     0          
O        O      0.561033333333     0.250000000000     0.257450000000     0          
O        O      0.561600000000     0.316000000000     0.235100000000     0          
O        O      0.497500000000     0.297366666667     0.272850000000     0          
O        O      0.654166666667     0.152100000000     0.436750000000     0          
O        O      0.588433333333     0.200100000000     0.445900000000     0          
O        O      0.387600000000     0.250000000000     0.339150000000     0          
O        O      0.384966666667     0.180833333333     0.354400000000     0          
O        O      0.652800000000     0.083333333333     0.420400000000     0          
O        O      0.451500000000     0.133700000000     0.364000000000     0          
O        O      0.374366666667     0.129700000000     0.394050000000     0          
O        O      0.401433333333     0.083333333333     0.175100000000     0          
O        O      0.417200000000     0.027233333333     0.209500000000     0          
O        O      0.334333333333     0.038133333333     0.188200000000     0          
O        O      0.401133333333     0.016933333333     0.153400000000     0          
O        O      0.605633333333     0.083333333333     0.007450000000     0          
O        O      0.605066666667     0.017333333333     0.485100000000     0          
O        O      0.335833333333     0.035966666667     0.022850000000     0          
O        O      0.512500000000     0.181233333333     0.186750000000     0          
O        O      0.578233333333     0.133233333333     0.195900000000     0          
O        O      0.445733333333     0.083333333333     0.089150000000     0          
O        O      0.448366666667     0.152500000000     0.104400000000     0          
O        O      0.513866666667     0.250000000000     0.170400000000     0          
O        O      0.381833333333     0.199633333333     0.114000000000     0          
O        O      0.458966666667     0.203633333333     0.144050000000     0          
O        O      0.598566666667     0.250000000000     0.324900000000     0          
O        O      0.582800000000     0.193900000000     0.290500000000     0          
O        O      0.665666666667     0.204800000000     0.311800000000     0          
O        O      0.598866666667     0.183600000000     0.346600000000     0          
O        O      0.394366666667     0.250000000000     0.492550000000     0          
O        O      0.394933333333     0.184000000000     0.014900000000     0          
O        O      0.664166666667     0.202633333333     0.477150000000     0          
O        O      0.487500000000     0.014566666667     0.313250000000     0          
O        O      0.421766666667     0.299900000000     0.304100000000     0          
O        O      0.554266666667     0.250000000000     0.410850000000     0          
O        O      0.551633333333     0.319166666667     0.395600000000     0          
O        O      0.486133333333     0.083333333333     0.329600000000     0          
O        O      0.618166666667     0.032966666667     0.386000000000     0          
O        O      0.541033333333     0.036966666667     0.355950000000     0          
O        O      0.568100000000     0.083333333333     0.074900000000     0          
O        O      0.583866666667     0.139433333333     0.040500000000     0          
O        O      0.501000000000     0.128533333333     0.061800000000     0          
O        O      0.567800000000     0.149733333333     0.096600000000     0          
O        O      0.438966666667     0.083333333333     0.242550000000     0          
O        O      0.438400000000     0.149333333333     0.264900000000     0          
O        O      0.502500000000     0.130700000000     0.227150000000     0          
O        O      0.345833333333     0.318766666667     0.063250000000     0          
O        O      0.411566666667     0.033433333333     0.054100000000     0          
O        O      0.612400000000     0.083333333333     0.160850000000     0          
O        O      0.615033333333     0.014166666667     0.145600000000     0          
O        O      0.347200000000     0.250000000000     0.079600000000     0          
O        O      0.548500000000     0.300366666667     0.136000000000     0          
O        O      0.625633333333     0.296366666667     0.105950000000     0          
O        O      0.583866666667     0.027233333333     0.040500000000     0          
O        O      0.501000000000     0.038133333333     0.061800000000     0          
O        O      0.567800000000     0.016933333333     0.096600000000     0          
O        O      0.438400000000     0.017333333333     0.264900000000     0          
O        O      0.502500000000     0.035966666667     0.227150000000     0          
O        O      0.345833333333     0.181233333333     0.063250000000     0          
O        O      0.411566666667     0.133233333333     0.054100000000     0          
O        O      0.615033333333     0.152500000000     0.145600000000     0          
O        O      0.548500000000     0.199633333333     0.136000000000     0          
O        O      0.625633333333     0.203633333333     0.105950000000     0          
O        O      0.582800000000     0.306100000000     0.290500000000     0          
O        O      0.665666666667     0.295200000000     0.311800000000     0          
O        O      0.598866666667     0.316400000000     0.346600000000     0          
O        O      0.394933333333     0.316000000000     0.014900000000     0          
O        O      0.664166666667     0.297366666667     0.477150000000     0          
O        O      0.487500000000     0.152100000000     0.313250000000     0          
O        O      0.421766666667     0.200100000000     0.304100000000     0          
O        O      0.551633333333     0.180833333333     0.395600000000     0          
O        O      0.618166666667     0.133700000000     0.386000000000     0          
O        O      0.541033333333     0.129700000000     0.355950000000     0          
O        O      0.417200000000     0.139433333333     0.209500000000     0          
O        O      0.334333333333     0.128533333333     0.188200000000     0          
O        O      0.401133333333     0.149733333333     0.153400000000     0          
O        O      0.605066666667     0.149333333333     0.485100000000     0          
O        O      0.335833333333     0.130700000000     0.022850000000     0          
O        O      0.512500000000     0.318766666667     0.186750000000     0          
O        O      0.578233333333     0.033433333333     0.195900000000     0          
O        O      0.448366666667     0.014166666667     0.104400000000     0          
O        O      0.381833333333     0.300366666667     0.114000000000     0          
O        O      0.458966666667     0.296366666667     0.144050000000     0          
O        O      0.416133333333     0.193900000000     0.459500000000     0          
O        O      0.499000000000     0.204800000000     0.438200000000     0          
O        O      0.432200000000     0.183600000000     0.403400000000     0          
O        O      0.561600000000     0.184000000000     0.235100000000     0          
O        O      0.497500000000     0.202633333333     0.272850000000     0          
O        O      0.654166666667     0.014566666667     0.436750000000     0          
O        O      0.588433333333     0.299900000000     0.445900000000     0          
O        O      0.384966666667     0.319166666667     0.354400000000     0          
O        O      0.451500000000     0.032966666667     0.364000000000     0          
O        O      0.374366666667     0.036966666667     0.394050000000     0          
O        O      0.431900000000     0.250000000000     0.925100000000     0          
O        O      0.416133333333     0.306100000000     0.959500000000     0          
O        O      0.499000000000     0.295200000000     0.938200000000     0          
O        O      0.432200000000     0.316400000000     0.903400000000     0          
O        O      0.561033333333     0.250000000000     0.757450000000     0          
O        O      0.561600000000     0.316000000000     0.735100000000     0          
O        O      0.497500000000     0.297366666667     0.772850000000     0          
O        O      0.654166666667     0.152100000000     0.936750000000     0          
O        O      0.588433333333     0.200100000000     0.945900000000     0          
O        O      0.387600000000     0.250000000000     0.839150000000     0          
O        O      0.384966666667     0.180833333333     0.854400000000     0          
O        O      0.652800000000     0.083333333333     0.920400000000     0          
O        O      0.451500000000     0.133700000000     0.864000000000     0          
O        O      0.374366666667     0.129700000000     0.894050000000     0          
O        O      0.401433333333     0.083333333333     0.675100000000     0          
O        O      0.417200000000     0.027233333333     0.709500000000     0          
O        O      0.334333333333     0.038133333333     0.688200000000     0          
O        O      0.401133333333     0.016933333333     0.653400000000     0          
O        O      0.605633333333     0.083333333333     0.507450000000     0          
O        O      0.605066666667     0.017333333333     0.985100000000     0          
O        O      0.335833333333     0.035966666667     0.522850000000     0          
O        O      0.512500000000     0.181233333333     0.686750000000     0          
O        O      0.578233333333     0.133233333333     0.695900000000     0          
O        O      0.445733333333     0.083333333333     0.589150000000     0          
O        O      0.448366666667     0.152500000000     0.604400000000     0          
O        O      0.513866666667     0.250000000000     0.670400000000     0          
O        O      0.381833333333     0.199633333333     0.614000000000     0          
O        O      0.458966666667     0.203633333333     0.644050000000     0          
O        O      0.598566666667     0.250000000000     0.824900000000     0          
O        O      0.582800000000     0.193900000000     0.790500000000     0          
O        O      0.665666666667     0.204800000000     0.811800000000     0          
O        O      0.598866666667     0.183600000000     0.846600000000     0          
O        O      0.394366666667     0.250000000000     0.992550000000     0          
O        O      0.394933333333     0.184000000000     0.514900000000     0          
O        O      0.664166666667     0.202633333333     0.977150000000     0          
O        O      0.487500000000     0.014566666667     0.813250000000     0          
O        O      0.421766666667     0.299900000000     0.804100000000     0          
O        O      0.554266666667     0.250000000000     0.910850000000     0          
O        O      0.551633333333     0.319166666667     0.895600000000     0          
O        O      0.486133333333     0.083333333333     0.829600000000     0          
O        O      0.618166666667     0.032966666667     0.886000000000     0          
O        O      0.541033333333     0.036966666667     0.855950000000     0          
O        O      0.568100000000     0.083333333333     0.574900000000     0          
O        O      0.583866666667     0.139433333333     0.540500000000     0          
O        O      0.501000000000     0.128533333333     0.561800000000     0          
O        O      0.567800000000     0.149733333333     0.596600000000     0          
O        O      0.438966666667     0.083333333333     0.742550000000     0          
O        O      0.438400000000     0.149333333333     0.764900000000     0          
O        O      0.502500000000     0.130700000000     0.727150000000     0          
O        O      0.345833333333     0.318766666667     0.563250000000     0          
O        O      0.411566666667     0.033433333333     0.554100000000     0          
O        O      0.612400000000     0.083333333333     0.660850000000     0          
O        O      0.615033333333     0.014166666667     0.645600000000     0          
O        O      0.347200000000     0.250000000000     0.579600000000     0          
O        O      0.548500000000     0.300366666667     0.636000000000     0          
O        O      0.625633333333     0.296366666667     0.605950000000     0          
O        O      0.583866666667     0.027233333333     0.540500000000     0          
O        O      0.501000000000     0.038133333333     0.561800000000     0          
O        O      0.567800000000     0.016933333333     0.596600000000     0          
O        O      0.438400000000     0.017333333333     0.764900000000     0          
O        O      0.502500000000     0.035966666667     0.727150000000     0          
O        O      0.345833333333     0.181233333333     0.563250000000     0          
O        O      0.411566666667     0.133233333333     0.554100000000     0          
O        O      0.615033333333     0.152500000000     0.645600000000     0          
O        O      0.548500000000     0.199633333333     0.636000000000     0          
O        O      0.625633333333     0.203633333333     0.605950000000     0          
O        O      0.582800000000     0.306100000000     0.790500000000     0          
O        O      0.665666666667     0.295200000000     0.811800000000     0          
O        O      0.598866666667     0.316400000000     0.846600000000     0          
O        O      0.394933333333     0.316000000000     0.514900000000     0          
O        O      0.664166666667     0.297366666667     0.977150000000     0          
O        O      0.487500000000     0.152100000000     0.813250000000     0          
O        O      0.421766666667     0.200100000000     0.804100000000     0          
O        O      0.551633333333     0.180833333333     0.895600000000     0          
O        O      0.618166666667     0.133700000000     0.886000000000     0          
O        O      0.541033333333     0.129700000000     0.855950000000     0          
O        O      0.417200000000     0.139433333333     0.709500000000     0          
O        O      0.334333333333     0.128533333333     0.688200000000     0          
O        O      0.401133333333     0.149733333333     0.653400000000     0          
O        O      0.605066666667     0.149333333333     0.985100000000     0          
O        O      0.335833333333     0.130700000000     0.522850000000     0          
O        O      0.512500000000     0.318766666667     0.686750000000     0          
O        O      0.578233333333     0.033433333333     0.695900000000     0          
O        O      0.448366666667     0.014166666667     0.604400000000     0          
O        O      0.381833333333     0.300366666667     0.614000000000     0          
O        O      0.458966666667     0.296366666667     0.644050000000     0          
O        O      0.416133333333     0.193900000000     0.959500000000     0          
O        O      0.499000000000     0.204800000000     0.938200000000     0          
O        O      0.432200000000     0.183600000000     0.903400000000     0          
O        O      0.561600000000     0.184000000000     0.735100000000     0          
O        O      0.497500000000     0.202633333333     0.772850000000     0          
O        O      0.654166666667     0.014566666667     0.936750000000     0          
O        O      0.588433333333     0.299900000000     0.945900000000     0          
O        O      0.384966666667     0.319166666667     0.854400000000     0          
O        O      0.451500000000     0.032966666667     0.864000000000     0          
O        O      0.374366666667     0.036966666667     0.894050000000     0          
O        O      0.431900000000     0.583333333333     0.425100000000     0          
O        O      0.416133333333     0.639433333333     0.459500000000     0          
O        O      0.499000000000     0.628533333333     0.438200000000     0          
O        O      0.432200000000     0.649733333333     0.403400000000     0          
O        O      0.561033333333     0.583333333333     0.257450000000     0          
O        O      0.561600000000     0.649333333333     0.235100000000     0          
O        O      0.497500000000     0.630700000000     0.272850000000     0          
O        O      0.654166666667     0.485433333333     0.436750000000     0          
O        O      0.588433333333     0.533433333333     0.445900000000     0          
O        O      0.387600000000     0.583333333333     0.339150000000     0          
O        O      0.384966666667     0.514166666667     0.354400000000     0          
O        O      0.652800000000     0.416666666667     0.420400000000     0          
O        O      0.451500000000     0.467033333333     0.364000000000     0          
O        O      0.374366666667     0.463033333333     0.394050000000     0          
O        O      0.401433333333     0.416666666667     0.175100000000     0          
O        O      0.417200000000     0.360566666667     0.209500000000     0          
O        O      0.334333333333     0.371466666667     0.188200000000     0          
O        O      0.401133333333     0.350266666667     0.153400000000     0          
O        O      0.605633333333     0.416666666667     0.007450000000     0          
O        O      0.605066666667     0.350666666667     0.485100000000     0          
O        O      0.335833333333     0.369300000000     0.022850000000     0          
O        O      0.512500000000     0.514566666667     0.186750000000     0          
O        O      0.578233333333     0.466566666667     0.195900000000     0          
O        O      0.445733333333     0.416666666667     0.089150000000     0          
O        O      0.448366666667     0.485833333333     0.104400000000     0          
O        O      0.513866666667     0.583333333333     0.170400000000     0          
O        O      0.381833333333     0.532966666667     0.114000000000     0          
O        O      0.458966666667     0.536966666667     0.144050000000     0          
O        O      0.598566666667     0.583333333333     0.324900000000     0          
O        O      0.582800000000     0.527233333333     0.290500000000     0          
O        O      0.665666666667     0.538133333333     0.311800000000     0          
O        O      0.598866666667     0.516933333333     0.346600000000     0          
O        O      0.394366666667     0.583333333333     0.492550000000     0          
O        O      0.394933333333     0.517333333333     0.014900000000     0          
O        O      0.664166666667     0.535966666667     0.477150000000     0          
O        O      0.487500000000     0.347900000000     0.313250000000     0          
O        O      0.421766666667     0.633233333333     0.304100000000     0          
O        O      0.554266666667     0.583333333333     0.410850000000     0          
O        O      0.551633333333     0.652500000000     0.395600000000     0          
O        O      0.486133333333     0.416666666667     0.329600000000     0          
O        O      0.618166666667     0.366300000000     0.386000000000     0          
O        O      0.541033333333     0.370300000000     0.355950000000     0          
O        O      0.568100000000     0.416666666667     0.074900000000     0          
O        O      0.583866666667     0.472766666667     0.040500000000     0          
O        O      0.501000000000     0.461866666667     0.061800000000     0          
O        O      0.567800000000     0.483066666667     0.096600000000     0          
O        O      0.438966666667     0.416666666667     0.242550000000     0          
O        O      0.438400000000     0.482666666667     0.264900000000     0          
O        O      0.502500000000     0.464033333333     0.227150000000     0          
O        O      0.345833333333     0.652100000000     0.063250000000     0          
O        O      0.411566666667     0.366766666667     0.054100000000     0          
O        O      0.612400000000     0.416666666667     0.160850000000     0          
O        O      0.615033333333     0.347500000000     0.145600000000     0          
O        O      0.347200000000     0.583333333333     0.079600000000     0          
O        O      0.548500000000     0.633700000000     0.136000000000     0          
O        O      0.625633333333     0.629700000000     0.105950000000     0          
O        O      0.583866666667     0.360566666667     0.040500000000     0          
O        O      0.501000000000     0.371466666667     0.061800000000     0          
O        O      0.567800000000     0.350266666667     0.096600000000     0          
O        O      0.438400000000     0.350666666667     0.264900000000     0          
O        O      0.502500000000     0.369300000000     0.227150000000     0          
O        O      0.345833333333     0.514566666667     0.063250000000     0          
O        O      0.411566666667     0.466566666667     0.054100000000     0          
O        O      0.615033333333     0.485833333333     0.145600000000     0          
O        O      0.548500000000     0.532966666667     0.136000000000     0          
O        O      0.625633333333     0.536966666667     0.105950000000     0          
O        O      0.582800000000     0.639433333333     0.290500000000     0          
O        O      0.665666666667     0.628533333333     0.311800000000     0          
O        O      0.598866666667     0.649733333333     0.346600000000     0          
O        O      0.394933333333     0.649333333333     0.014900000000     0          
O        O      0.664166666667     0.630700000000     0.477150000000     0          
O        O      0.487500000000     0.485433333333     0.313250000000     0          
O        O      0.421766666667     0.533433333333     0.304100000000     0          
O        O      0.551633333333     0.514166666667     0.395600000000     0          
O        O      0.618166666667     0.467033333333     0.386000000000     0          
O        O      0.541033333333     0.463033333333     0.355950000000     0          
O        O      0.417200000000     0.472766666667     0.209500000000     0          
O        O      0.334333333333     0.461866666667     0.188200000000     0          
O        O      0.401133333333     0.483066666667     0.153400000000     0          
O        O      0.605066666667     0.482666666667     0.485100000000     0          
O        O      0.335833333333     0.464033333333     0.022850000000     0          
O        O      0.512500000000     0.652100000000     0.186750000000     0          
O        O      0.578233333333     0.366766666667     0.195900000000     0          
O        O      0.448366666667     0.347500000000     0.104400000000     0          
O        O      0.381833333333     0.633700000000     0.114000000000     0          
O        O      0.458966666667     0.629700000000     0.144050000000     0          
O        O      0.416133333333     0.527233333333     0.459500000000     0          
O        O      0.499000000000     0.538133333333     0.438200000000     0          
O        O      0.432200000000     0.516933333333     0.403400000000     0          
O        O      0.561600000000     0.517333333333     0.235100000000     0          
O        O      0.497500000000     0.535966666667     0.272850000000     0          
O        O      0.654166666667     0.347900000000     0.436750000000     0          
O        O      0.588433333333     0.633233333333     0.445900000000     0          
O        O      0.384966666667     0.652500000000     0.354400000000     0          
O        O      0.451500000000     0.366300000000     0.364000000000     0          
O        O      0.374366666667     0.370300000000     0.394050000000     0          
O        O      0.431900000000     0.583333333333     0.925100000000     0          
O        O      0.416133333333     0.639433333333     0.959500000000     0          
O        O      0.499000000000     0.628533333333     0.938200000000     0          
O        O      0.432200000000     0.649733333333     0.903400000000     0          
O        O      0.561033333333     0.583333333333     0.757450000000     0          
O        O      0.561600000000     0.649333333333     0.735100000000     0          
O        O      0.497500000000     0.630700000000     0.772850000000     0          
O        O      0.654166666667     0.485433333333     0.936750000000     0          
O        O      0.588433333333     0.533433333333     0.945900000000     0          
O        O      0.387600000000     0.583333333333     0.839150000000     0          
O        O      0.384966666667     0.514166666667     0.854400000000     0          
O        O      0.652800000000     0.416666666667     0.920400000000     0          
O        O      0.451500000000     0.467033333333     0.864000000000     0          
O        O      0.374366666667     0.463033333333     0.894050000000     0          
O        O      0.401433333333     0.416666666667     0.675100000000     0          
O        O      0.417200000000     0.360566666667     0.709500000000     0          
O        O      0.334333333333     0.371466666667     0.688200000000     0          
O        O      0.401133333333     0.350266666667     0.653400000000     0          
O        O      0.605633333333     0.416666666667     0.507450000000     0          
O        O      0.605066666667     0.350666666667     0.985100000000     0          
O        O      0.335833333333     0.369300000000     0.522850000000     0          
O        O      0.512500000000     0.514566666667     0.686750000000     0          
O        O      0.578233333333     0.466566666667     0.695900000000     0          
O        O      0.445733333333     0.416666666667     0.589150000000     0          
O        O      0.448366666667     0.485833333333     0.604400000000     0          
O        O      0.513866666667     0.583333333333     0.670400000000     0          
O        O      0.381833333333     0.532966666667     0.614000000000     0          
O        O      0.458966666667     0.536966666667     0.644050000000     0          
O        O      0.598566666667     0.583333333333     0.824900000000     0          
O        O      0.582800000000     0.527233333333     0.790500000000     0          
O        O      0.665666666667     0.538133333333     0.811800000000     0          
O        O      0.598866666667     0.516933333333     0.846600000000     0          
O        O      0.394366666667     0.583333333333     0.992550000000     0          
O        O      0.394933333333     0.517333333333     0.514900000000     0          
O        O      0.664166666667     0.535966666667     0.977150000000     0          
O        O      0.487500000000     0.347900000000     0.813250000000     0          
O        O      0.421766666667     0.633233333333     0.804100000000     0          
O        O      0.554266666667     0.583333333333     0.910850000000     0          
O        O      0.551633333333     0.652500000000     0.895600000000     0          
O        O      0.486133333333     0.416666666667     0.829600000000     0          
O        O      0.618166666667     0.366300000000     0.886000000000     0          
O        O      0.541033333333     0.370300000000     0.855950000000     0          
O        O      0.568100000000     0.416666666667     0.574900000000     0          
O        O      0.583866666667     0.472766666667     0.540500000000     0          
O        O      0.501000000000     0.461866666667     0.561800000000     0          
O        O      0.567800000000     0.483066666667     0.596600000000     0          
O        O      0.438966666667     0.416666666667     0.742550000000     0          
O        O      0.438400000000     0.482666666667     0.764900000000     0          
O        O      0.502500000000     0.464033333333     0.727150000000     0          
O        O      0.345833333333     0.652100000000     0.563250000000     0          
O        O      0.411566666667     0.366766666667     0.554100000000     0          
O        O      0.612400000000     0.416666666667     0.660850000000     0          
O        O      0.615033333333     0.347500000000     0.645600000000     0          
O        O      0.347200000000     0.583333333333     0.579600000000     0          
O        O      0.548500000000     0.633700000000     0.636000000000     0          
O        O      0.625633333333     0.629700000000     0.605950000000     0          
O        O      0.583866666667     0.360566666667     0.540500000000     0          
O        O      0.501000000000     0.371466666667     0.561800000000     0          
O        O      0.567800000000     0.350266666667     0.596600000000     0          
O        O      0.438400000000     0.350666666667     0.764900000000     0          
O        O      0.502500000000     0.369300000000     0.727150000000     0          
O        O      0.345833333333     0.514566666667     0.563250000000     0          
O        O      0.411566666667     0.466566666667     0.554100000000     0          
O        O      0.615033333333     0.485833333333     0.645600000000     0          
O        O      0.548500000000     0.532966666667     0.636000000000     0          
O        O      0.625633333333     0.536966666667     0.605950000000     0          
O        O      0.582800000000     0.639433333333     0.790500000000     0          
O        O      0.665666666667     0.628533333333     0.811800000000     0          
O        O      0.598866666667     0.649733333333     0.846600000000     0          
O        O      0.394933333333     0.649333333333     0.514900000000     0          
O        O      0.664166666667     0.630700000000     0.977150000000     0          
O        O      0.487500000000     0.485433333333     0.813250000000     0          
O        O      0.421766666667     0.533433333333     0.804100000000     0          
O        O      0.551633333333     0.514166666667     0.895600000000     0          
O        O      0.618166666667     0.467033333333     0.886000000000     0          
O        O      0.541033333333     0.463033333333     0.855950000000     0          
O        O      0.417200000000     0.472766666667     0.709500000000     0          
O        O      0.334333333333     0.461866666667     0.688200000000     0          
O        O      0.401133333333     0.483066666667     0.653400000000     0          
O        O      0.605066666667     0.482666666667     0.985100000000     0          
O        O      0.335833333333     0.464033333333     0.522850000000     0          
O        O      0.512500000000     0.652100000000     0.686750000000     0          
O        O      0.578233333333     0.366766666667     0.695900000000     0          
O        O      0.448366666667     0.347500000000     0.604400000000     0          
O        O      0.381833333333     0.633700000000     0.614000000000     0          
O        O      0.458966666667     0.629700000000     0.644050000000     0          
O        O      0.416133333333     0.527233333333     0.959500000000     0          
O        O      0.499000000000     0.538133333333     0.938200000000     0          
O        O      0.432200000000     0.516933333333     0.903400000000     0          
O        O      0.561600000000     0.517333333333     0.735100000000     0          
O        O      0.497500000000     0.535966666667     0.772850000000     0          
O        O      0.654166666667     0.347900000000     0.936750000000     0          
O        O      0.588433333333     0.633233333333     0.945900000000     0          
O        O      0.384966666667     0.652500000000     0.854400000000     0          
O        O      0.451500000000     0.366300000000     0.864000000000     0          
O        O      0.374366666667     0.370300000000     0.894050000000     0          
O        O      0.431900000000     0.916666666667     0.425100000000     0          
O        O      0.416133333333     0.972766666667     0.459500000000     0          
O        O      0.499000000000     0.961866666667     0.438200000000     0          
O        O      0.432200000000     0.983066666667     0.403400000000     0          
O        O      0.561033333333     0.916666666667     0.257450000000     0          
O        O      0.561600000000     0.982666666667     0.235100000000     0          
O        O      0.497500000000     0.964033333333     0.272850000000     0          
O        O      0.654166666667     0.818766666667     0.436750000000     0          
O        O      0.588433333333     0.866766666667     0.445900000000     0          
O        O      0.387600000000     0.916666666667     0.339150000000     0          
O        O      0.384966666667     0.847500000000     0.354400000000     0          
O        O      0.652800000000     0.750000000000     0.420400000000     0          
O        O      0.451500000000     0.800366666667     0.364000000000     0          
O        O      0.374366666667     0.796366666667     0.394050000000     0          
O        O      0.401433333333     0.750000000000     0.175100000000     0          
O        O      0.417200000000     0.693900000000     0.209500000000     0          
O        O      0.334333333333     0.704800000000     0.188200000000     0          
O        O      0.401133333333     0.683600000000     0.153400000000     0          
O        O      0.605633333333     0.750000000000     0.007450000000     0          
O        O      0.605066666667     0.684000000000     0.485100000000     0          
O        O      0.335833333333     0.702633333333     0.022850000000     0          
O        O      0.512500000000     0.847900000000     0.186750000000     0          
O        O      0.578233333333     0.799900000000     0.195900000000     0          
O        O      0.445733333333     0.750000000000     0.089150000000     0          
O        O      0.448366666667     0.819166666667     0.104400000000     0          
O        O      0.513866666667     0.916666666667     0.170400000000     0          
O        O      0.381833333333     0.866300000000     0.114000000000     0          
O        O      0.458966666667     0.870300000000     0.144050000000     0          
O        O      0.598566666667     0.916666666667     0.324900000000     0          
O        O      0.582800000000     0.860566666667     0.290500000000     0          
O        O      0.665666666667     0.871466666667     0.311800000000     0          
O        O      0.598866666667     0.850266666667     0.346600000000     0          
O        O      0.394366666667     0.916666666667     0.492550000000     0          
O        O      0.394933333333     0.850666666667     0.014900000000     0          
O        O      0.664166666667     0.869300000000     0.477150000000     0          
O        O      0.487500000000     0.681233333333     0.313250000000     0          
O        O      0.421766666667     0.966566666667     0.304100000000     0          
O        O      0.554266666667     0.916666666667     0.410850000000     0          
O        O      0.551633333333     0.985833333333     0.395600000000     0          
O        O      0.486133333333     0.750000000000     0.329600000000     0          
O        O      0.618166666667     0.699633333333     0.386000000000     0          
O        O      0.541033333333     0.703633333333     0.355950000000     0          
O        O      0.568100000000     0.750000000000     0.074900000000     0          
O        O      0.583866666667     0.806100000000     0.040500000000     0          
O        O      0.501000000000     0.795200000000     0.061800000000     0          
O        O      0.567800000000     0.816400000000     0.096600000000     0          
O        O      0.438966666667     0.750000000000     0.242550000000     0          
O        O      0.438400000000     0.816000000000     0.264900000000     0          
O        O      0.502500000000     0.797366666667     0.227150000000     0          
O        O      0.345833333333     0.985433333333     0.063250000000     0          
O        O      0.411566666667     0.700100000000     0.054100000000     0          
O        O      0.612400000000     0.750000000000     0.160850000000     0          
O        O      0.615033333333     0.680833333333     0.145600000000     0          
O        O      0.347200000000     0.916666666667     0.079600000000     0          
O        O      0.548500000000     0.967033333333     0.136000000000     0          
O        O      0.625633333333     0.963033333333     0.105950000000     0          
O        O      0.583866666667     0.693900000000     0.040500000000     0          
O        O      0.501000000000     0.704800000000     0.061800000000     0          
O        O      0.567800000000     0.683600000000     0.096600000000     0          
O        O      0.438400000000     0.684000000000     0.264900000000     0          
O        O      0.502500000000     0.702633333333     0.227150000000     0          
O        O      0.345833333333     0.847900000000     0.063250000000     0          
O        O      0.411566666667     0.799900000000     0.054100000000     0          
O        O      0.615033333333     0.819166666667     0.145600000000     0          
O        O      0.548500000000     0.866300000000     0.136000000000     0          
O        O      0.625633333333     0.870300000000     0.105950000000     0          
O        O      0.582800000000     0.972766666667     0.290500000000     0          
O        O      0.665666666667     0.961866666667     0.311800000000     0          
O        O      0.598866666667     0.983066666667     0.346600000000     0          
O        O      0.394933333333     0.982666666667     0.014900000000     0          
O        O      0.664166666667     0.964033333333     0.477150000000     0          
O        O      0.487500000000     0.818766666667     0.313250000000     0          
O        O      0.421766666667     0.866766666667     0.304100000000     0          
O        O      0.551633333333     0.847500000000     0.395600000000     0          
O        O      0.618166666667     0.800366666667     0.386000000000     0          
O        O      0.541033333333     0.796366666667     0.355950000000     0          
O        O      0.417200000000     0.806100000000     0.209500000000     0          
O        O      0.334333333333     0.795200000000     0.188200000000     0          
O        O      0.401133333333     0.816400000000     0.153400000000     0          
O        O      0.605066666667     0.816000000000     0.485100000000     0          
O        O      0.335833333333     0.797366666667     0.022850000000     0          
O        O      0.512500000000     0.985433333333     0.186750000000     0          
O        O      0.578233333333     0.700100000000     0.195900000000     0          
O        O      0.448366666667     0.680833333333     0.104400000000     0          
O        O      0.381833333333     0.967033333333     0.114000000000     0          
O        O      0.458966666667     0.963033333333     0.144050000000     0          
O        O      0.416133333333     0.860566666667     0.459500000000     0          
O        O      0.499000000000     0.871466666667     0.438200000000     0          
O        O      0.432200000000     0.850266666667     0.403400000000     0          
O        O      0.561600000000     0.850666666667     0.235100000000     0          
O        O      0.497500000000     0.869300000000     0.272850000000     0          
O        O      0.654166666667     0.681233333333     0.436750000000     0          
O        O      0.588433333333     0.966566666667     0.445900000000     0          
O        O      0.384966666667     0.985833333333     0.354400000000     0          
O        O      0.451500000000     0.699633333333     0.364000000000     0          
O        O      0.374366666667     0.703633333333     0.394050000000     0          
O        O      0.431900000000     0.916666666667     0.925100000000     0          
O        O      0.416133333333     0.972766666667     0.959500000000     0          
O        O      0.499000000000     0.961866666667     0.938200000000     0          
O        O      0.432200000000     0.983066666667     0.903400000000     0          
O        O      0.561033333333     0.916666666667     0.757450000000     0          
O        O      0.561600000000     0.982666666667     0.735100000000     0          
O        O      0.497500000000     0.964033333333     0.772850000000     0          
O        O      0.654166666667     0.818766666667     0.936750000000     0          
O        O      0.588433333333     0.866766666667     0.945900000000     0          
O        O      0.387600000000     0.916666666667     0.839150000000     0          
O        O      0.384966666667     0.847500000000     0.854400000000     0          
O        O      0.652800000000     0.750000000000     0.920400000000     0          
O        O      0.451500000000     0.800366666667     0.864000000000     0          
O        O      0.374366666667     0.796366666667     0.894050000000     0          
O        O      0.401433333333     0.750000000000     0.675100000000     0          
O        O      0.417200000000     0.693900000000     0.709500000000     0          
O        O      0.334333333333     0.704800000000     0.688200000000     0          
O        O      0.401133333333     0.683600000000     0.653400000000     0          
O        O      0.605633333333     0.750000000000     0.507450000000     0          
O        O      0.605066666667     0.684000000000     0.985100000000     0          
O        O      0.335833333333     0.702633333333     0.522850000000     0          
O        O      0.512500000000     0.847900000000     0.686750000000     0          
O        O      0.578233333333     0.799900000000     0.695900000000     0          
O        O      0.445733333333     0.750000000000     0.589150000000     0          
O        O      0.448366666667     0.819166666667     0.604400000000     0          
O        O      0.513866666667     0.916666666667     0.670400000000     0          
O        O      0.381833333333     0.866300000000     0.614000000000     0          
O        O      0.458966666667     0.870300000000     0.644050000000     0          
O        O      0.598566666667     0.916666666667     0.824900000000     0          
O        O      0.582800000000     0.860566666667     0.790500000000     0          
O        O      0.665666666667     0.871466666667     0.811800000000     0          
O        O      0.598866666667     0.850266666667     0.846600000000     0          
O        O      0.394366666667     0.916666666667     0.992550000000     0          
O        O      0.394933333333     0.850666666667     0.514900000000     0          
O        O      0.664166666667     0.869300000000     0.977150000000     0          
O        O      0.487500000000     0.681233333333     0.813250000000     0          
O        O      0.421766666667     0.966566666667     0.804100000000     0          
O        O      0.554266666667     0.916666666667     0.910850000000     0          
O        O      0.551633333333     0.985833333333     0.895600000000     0          
O        O      0.486133333333     0.750000000000     0.829600000000     0          
O        O      0.618166666667     0.699633333333     0.886000000000     0          
O        O      0.541033333333     0.703633333333     0.855950000000     0          
O        O      0.568100000000     0.750000000000     0.574900000000     0          
O        O      0.583866666667     0.806100000000     0.540500000000     0          
O        O      0.501000000000     0.795200000000     0.561800000000     0          
O        O      0.567800000000     0.816400000000     0.596600000000     0          
O        O      0.438966666667     0.750000000000     0.742550000000     0          
O        O      0.438400000000     0.816000000000     0.764900000000     0          
O        O      0.502500000000     0.797366666667     0.727150000000     0          
O        O      0.345833333333     0.985433333333     0.563250000000     0          
O        O      0.411566666667     0.700100000000     0.554100000000     0          
O        O      0.612400000000     0.750000000000     0.660850000000     0          
O        O      0.615033333333     0.680833333333     0.645600000000     0          
O        O      0.347200000000     0.916666666667     0.579600000000     0          
O        O      0.548500000000     0.967033333333     0.636000000000     0          
O        O      0.625633333333     0.963033333333     0.605950000000     0          
O        O      0.583866666667     0.693900000000     0.540500000000     0          
O        O      0.501000000000     0.704800000000     0.561800000000     0          
O        O      0.567800000000     0.683600000000     0.596600000000     0          
O        O      0.438400000000     0.684000000000     0.764900000000     0          
O        O      0.502500000000     0.702633333333     0.727150000000     0          
O        O      0.345833333333     0.847900000000     0.563250000000     0          
O        O      0.411566666667     0.799900000000     0.554100000000     0          
O        O      0.615033333333     0.819166666667     0.645600000000     0          
O        O      0.548500000000     0.866300000000     0.636000000000     0          
O        O      0.625633333333     0.870300000000     0.605950000000     0          
O        O      0.582800000000     0.972766666667     0.790500000000     0          
O        O      0.665666666667     0.961866666667     0.811800000000     0          
O        O      0.598866666667     0.983066666667     0.846600000000     0          
O        O      0.394933333333     0.982666666667     0.514900000000     0          
O        O      0.664166666667     0.964033333333     0.977150000000     0          
O        O      0.487500000000     0.818766666667     0.813250000000     0          
O        O      0.421766666667     0.866766666667     0.804100000000     0          
O        O      0.551633333333     0.847500000000     0.895600000000     0          
O        O      0.618166666667     0.800366666667     0.886000000000     0          
O        O      0.541033333333     0.796366666667     0.855950000000     0          
O        O      0.417200000000     0.806100000000     0.709500000000     0          
O        O      0.334333333333     0.795200000000     0.688200000000     0          
O        O      0.401133333333     0.816400000000     0.653400000000     0          
O        O      0.605066666667     0.816000000000     0.985100000000     0          
O        O      0.335833333333     0.797366666667     0.522850000000     0          
O        O      0.512500000000     0.985433333333     0.686750000000     0          
O        O      0.578233333333     0.700100000000     0.695900000000     0          
O        O      0.448366666667     0.680833333333     0.604400000000     0          
O        O      0.381833333333     0.967033333333     0.614000000000     0          
O        O      0.458966666667     0.963033333333     0.644050000000     0          
O        O      0.416133333333     0.860566666667     0.959500000000     0          
O        O      0.499000000000     0.871466666667     0.938200000000     0          
O        O      0.432200000000     0.850266666667     0.903400000000     0          
O        O      0.561600000000     0.850666666667     0.735100000000     0          
O        O      0.497500000000     0.869300000000     0.772850000000     0          
O        O      0.654166666667     0.681233333333     0.936750000000     0          
O        O      0.588433333333     0.966566666667     0.945900000000     0          
O        O      0.384966666667     0.985833333333     0.854400000000     0          
O        O      0.451500000000     0.699633333333     0.864000000000     0          
O        O      0.374366666667     0.703633333333     0.894050000000     0          
O        O      0.765233333333     0.250000000000     0.425100000000     0          
O        O      0.749466666667     0.306100000000     0.459500000000     0          
O        O      0.832333333333     0.295200000000     0.438200000000     0          
O        O      0.765533333333     0.316400000000     0.403400000000     0          
O        O      0.894366666667     0.250000000000     0.257450000000     0          
O        O      0.894933333333     0.316000000000     0.235100000000     0          
O        O      0.830833333333     0.297366666667     0.272850000000     0          
O        O      0.987500000000     0.152100000000     0.436750000000     0          
O        O      0.921766666667     0.200100000000     0.445900000000     0          
O        O      0.720933333333     0.250000000000     0.339150000000     0          
O        O      0.718300000000     0.180833333333     0.354400000000     0          
O        O      0.986133333333     0.083333333333     0.420400000000     0          
O        O      0.784833333333     0.133700000000     0.364000000000     0          
O        O      0.707700000000     0.129700000000     0.394050000000     0          
O        O      0.734766666667     0.083333333333     0.175100000000     0          
O        O      0.750533333333     0.027233333333     0.209500000000     0          
O        O      0.667666666667     0.038133333333     0.188200000000     0          
O        O      0.734466666667     0.016933333333     0.153400000000     0          
O        O      0.938966666667     0.083333333333     0.007450000000     0          
O        O      0.938400000000     0.017333333333     0.485100000000     0          
O        O      0.669166666667     0.035966666667     0.022850000000     0          
O        O      0.845833333333     0.181233333333     0.186750000000     0          
O        O      0.911566666667     0.133233333333     0.195900000000     0          
O        O      0.779066666667     0.083333333333     0.089150000000     0          
O        O      0.781700000000     0.152500000000     0.104400000000     0          
O        O      0.847200000000     0.250000000000     0.170400000000     0          
O        O      0.715166666667     0.199633333333     0.114000000000     0          
O        O      0.792300000000     0.203633333333     0.144050000000     0          
O        O      0.931900000000     0.250000000000     0.324900000000     0          
O        O      0.916133333333     0.193900000000     0.290500000000     0          
O        O      0.999000000000     0.204800000000     0.311800000000     0          
O        O      0.932200000000     0.183600000000     0.346600000000     0          
O        O      0.727700000000     0.250000000000     0.492550000000     0          
O        O      0.728266666667     0.184000000000     0.014900000000     0          
O        O      0.997500000000     0.202633333333     0.477150000000     0          
O        O      0.820833333333     0.014566666667     0.313250000000     0          
O        O      0.755100000000     0.299900000000     0.304100000000     0          
O        O      0.887600000000     0.250000000000     0.410850000000     0          
O        O      0.884966666667     0.319166666667     0.395600000000     0          
O        O      0.819466666667     0.083333333333     0.329600000000     0          
O        O      0.951500000000     0.032966666667     0.386000000000     0          
O        O      0.874366666667     0.036966666667     0.355950000000     0          
O        O      0.901433333333     0.083333333333     0.074900000000     0          
O        O      0.917200000000     0.139433333333     0.040500000000     0          
O        O      0.834333333333     0.128533333333     0.061800000000     0          
O        O      0.901133333333     0.149733333333     0.096600000000     0          
O        O      0.772300000000     0.083333333333     0.242550000000     0          
O        O      0.771733333333     0.149333333333     0.264900000000     0          
O        O      0.835833333333     0.130700000000     0.227150000000     0          
O        O      0.679166666667     0.318766666667     0.063250000000     0          
O        O      0.744900000000     0.033433333333     0.054100000000     0          
O        O      0.945733333333     0.083333333333     0.160850000000     0          
O        O      0.948366666667     0.014166666667     0.145600000000     0          
O        O      0.680533333333     0.250000000000     0.079600000000     0          
O        O      0.881833333333     0.300366666667     0.136000000000     0          
O        O      0.958966666667     0.296366666667     0.105950000000     0          
O        O      0.917200000000     0.027233333333     0.040500000000     0          
O        O      0.834333333333     0.038133333333     0.061800000000     0          
O        O      0.901133333333     0.016933333333     0.096600000000     0          
O        O      0.771733333333     0.017333333333     0.264900000000     0          
O        O      0.835833333333     0.035966666667     0.227150000000     0          
O        O      0.679166666667     0.181233333333     0.063250000000     0          
O        O      0.744900000000     0.133233333333     0.054100000000     0          
O        O      0.948366666667     0.152500000000     0.145600000000     0          
O        O      0.881833333333     0.199633333333     0.136000000000     0          
O        O      0.958966666667     0.203633333333     0.105950000000     0          
O        O      0.916133333333     0.306100000000     0.290500000000     0          
O        O      0.999000000000     0.295200000000     0.311800000000     0          
O        O      0.932200000000     0.316400000000     0.346600000000     0          
O        O      0.728266666667     0.316000000000     0.014900000000     0          
O        O      0.997500000000     0.297366666667     0.477150000000     0          
O        O      0.820833333333     0.152100000000     0.313250000000     0          
O        O      0.755100000000     0.200100000000     0.304100000000     0          
O        O      0.884966666667     0.180833333333     0.395600000000     0          
O        O      0.951500000000     0.133700000000     0.386000000000     0          
O        O      0.874366666667     0.129700000000     0.355950000000     0          
O        O      0.750533333333     0.139433333333     0.209500000000     0          
O        O      0.667666666667     0.128533333333     0.188200000000     0          
O        O      0.734466666667     0.149733333333     0.153400000000     0          
O        O      0.938400000000     0.149333333333     0.485100000000     0          
O        O      0.669166666667     0.130700000000     0.022850000000     0          
O        O      0.845833333333     0.318766666667     0.186750000000     0          
O        O      0.911566666667     0.033433333333     0.195900000000     0          
O        O      0.781700000000     0.014166666667     0.104400000000     0          
O        O      0.715166666667     0.300366666667     0.114000000000     0          
O        O      0.792300000000     0.296366666667     0.144050000000     0          
O        O      0.749466666667     0.193900000000     0.459500000000     0          
O        O      0.832333333333     0.204800000000     0.438200000000     0          
O        O      0.765533333333     0.183600000000     0.403400000000     0          
O        O      0.894933333333     0.184000000000     0.235100000000     0          
O        O      0.830833333333     0.202633333333     0.272850000000     0          
O        O      0.987500000000     0.014566666667     0.436750000000     0          
O        O      0.921766666667     0.299900000000     0.445900000000     0          
O        O      0.718300000000     0.319166666667     0.354400000000     0          
O        O      0.784833333333     0.032966666667     0.364000000000     0          
O        O      0.707700000000     0.036966666667     0.394050000000     0          
O        O      0.765233333333     0.250000000000     0.925100000000     0          
O        O      0.749466666667     0.306100000000     0.959500000000     0          
O        O      0.832333333333     0.295200000000     0.938200000000     0          
O        O      0.765533333333     0.316400000000     0.903400000000     0          
O        O      0.894366666667     0.250000000000     0.757450000000     0          
O        O      0.894933333333     0.316000000000     0.735100000000     0          
O        O      0.830833333333     0.297366666667     0.772850000000     0          
O        O      0.987500000000     0.152100000000     0.936750000000     0          
O        O      0.921766666667     0.200100000000     0.945900000000     0          
O        O      0.720933333333     0.250000000000     0.839150000000     0          
O        O      0.718300000000     0.180833333333     0.854400000000     0          
O        O      0.986133333333     0.083333333333     0.920400000000     0          
O        O      0.784833333333     0.133700000000     0.864000000000     0          
O        O      0.707700000000     0.129700000000     0.894050000000     0          
O        O      0.734766666667     0.083333333333     0.675100000000     0          
O        O      0.750533333333     0.027233333333     0.709500000000     0          
O        O      0.667666666667     0.038133333333     0.688200000000     0          
O        O      0.734466666667     0.016933333333     0.653400000000     0          
O        O      0.938966666667     0.083333333333     0.507450000000     0          
O        O      0.938400000000     0.017333333333     0.985100000000     0          
O        O      0.669166666667     0.035966666667     0.522850000000     0          
O        O      0.845833333333     0.181233333333     0.686750000000     0          
O        O      0.911566666667     0.133233333333     0.695900000000     0          
O        O      0.779066666667     0.083333333333     0.589150000000     0          
O        O      0.781700000000     0.152500000000     0.604400000000     0          
O        O      0.847200000000     0.250000000000     0.670400000000     0          
O        O      0.715166666667     0.199633333333     0.614000000000     0          
O        O      0.792300000000     0.203633333333     0.644050000000     0          
O        O      0.931900000000     0.250000000000     0.824900000000     0          
O        O      0.916133333333     0.193900000000     0.790500000000     0          
O        O      0.999000000000     0.204800000000     0.811800000000     0          
O        O      0.932200000000     0.183600000000     0.846600000000     0          
O        O      0.727700000000     0.250000000000     0.992550000000     0          
O        O      0.728266666667     0.184000000000     0.514900000000     0          
O        O      0.997500000000     0.202633333333     0.977150000000     0          
O        O      0.820833333333     0.014566666667     0.813250000000     0          
O        O      0.755100000000     0.299900000000     0.804100000000     0          
O        O      0.887600000000     0.250000000000     0.910850000000     0          
O        O      0.884966666667     0.319166666667     0.895600000000     0          
O        O      0.819466666667     0.083333333333     0.829600000000     0          
O        O      0.951500000000     0.032966666667     0.886000000000     0          
O        O      0.874366666667     0.036966666667     0.855950000000     0          
O        O      0.901433333333     0.083333333333     0.574900000000     0          
O        O      0.917200000000     0.139433333333     0.540500000000     0          
O        O      0.834333333333     0.128533333333     0.561800000000     0          
O        O      0.901133333333     0.149733333333     0.596600000000     0          
O        O      0.772300000000     0.083333333333     0.742550000000     0          
O        O      0.771733333333     0.149333333333     0.764900000000     0          
O        O      0.835833333333     0.130700000000     0.727150000000     0          
O        O      0.679166666667     0.318766666667     0.563250000000     0          
O        O      0.744900000000     0.033433333333     0.554100000000     0          
O        O      0.945733333333     0.083333333333     0.660850000000     0          
O        O      0.948366666667     0.014166666667     0.645600000000     0          
O        O      0.680533333333     0.250000000000     0.579600000000     0          
O        O      0.881833333333     0.300366666667     0.636000000000     0          
O        O      0.958966666667     0.296366666667     0.605950000000     0          
O        O      0.917200000000     0.027233333333     0.540500000000     0          
O        O      0.834333333333     0.038133333333     0.561800000000     0          
O        O      0.901133333333     0.016933333333     0.596600000000     0          
O        O      0.771733333333     0.017333333333     0.764900000000     0          
O        O      0.835833333333     0.035966666667     0.727150000000     0          
O        O      0.679166666667     0.181233333333     0.563250000000     0          
O        O      0.744900000000     0.133233333333     0.554100000000     0          
O        O      0.948366666667     0.152500000000     0.645600000000     0          
O        O      0.881833333333     0.199633333333     0.636000000000     0          
O        O      0.958966666667     0.203633333333     0.605950000000     0          
O        O      0.916133333333     0.306100000000     0.790500000000     0          
O        O      0.999000000000     0.295200000000     0.811800000000     0          
O        O      0.932200000000     0.316400000000     0.846600000000     0          
O        O      0.728266666667     0.316000000000     0.514900000000     0          
O        O      0.997500000000     0.297366666667     0.977150000000     0          
O        O      0.820833333333     0.152100000000     0.813250000000     0          
O        O      0.755100000000     0.200100000000     0.804100000000     0          
O        O      0.884966666667     0.180833333333     0.895600000000     0          
O        O      0.951500000000     0.133700000000     0.886000000000     0          
O        O      0.874366666667     0.129700000000     0.855950000000     0          
O        O      0.750533333333     0.139433333333     0.709500000000     0          
O        O      0.667666666667     0.128533333333     0.688200000000     0          
O        O      0.734466666667     0.149733333333     0.653400000000     0          
O        O      0.938400000000     0.149333333333     0.985100000000     0          
O        O      0.669166666667     0.130700000000     0.522850000000     0          
O        O      0.845833333333     0.318766666667     0.686750000000     0          
O        O      0.911566666667     0.033433333333     0.695900000000     0          
O        O      0.781700000000     0.014166666667     0.604400000000     0          
O        O      0.715166666667     0.300366666667     0.614000000000     0          
O        O      0.792300000000     0.296366666667     0.644050000000     0          
O        O      0.749466666667     0.193900000000     0.959500000000     0          
O        O      0.832333333333     0.204800000000     0.938200000000     0          
O        O      0.765533333333     0.183600000000     0.903400000000     0          
O        O      0.894933333333     0.184000000000     0.735100000000     0          
O        O      0.830833333333     0.202633333333     0.772850000000     0          
O        O      0.987500000000     0.014566666667     0.936750000000     0          
O        O      0.921766666667     0.299900000000     0.945900000000     0          
O        O      0.718300000000     0.319166666667     0.854400000000     0          
O        O      0.784833333333     0.032966666667     0.864000000000     0          
O        O      0.707700000000     0.036966666667     0.894050000000     0          
O        O      0.765233333333     0.583333333333     0.425100000000     0          
O        O      0.749466666667     0.639433333333     0.459500000000     0          
O        O      0.832333333333     0.628533333333     0.438200000000     0          
O        O      0.765533333333     0.649733333333     0.403400000000     0          
O        O      0.894366666667     0.583333333333     0.257450000000     0          
O        O      0.894933333333     0.649333333333     0.235100000000     0          
O        O      0.830833333333     0.630700000000     0.272850000000     0          
O        O      0.987500000000     0.485433333333     0.436750000000     0          
O        O      0.921766666667     0.533433333333     0.445900000000     0          
O        O      0.720933333333     0.583333333333     0.339150000000     0          
O        O      0.718300000000     0.514166666667     0.354400000000     0          
O        O      0.986133333333     0.416666666667     0.420400000000     0          
O        O      0.784833333333     0.467033333333     0.364000000000     0          
O        O      0.707700000000     0.463033333333     0.394050000000     0          
O        O      0.734766666667     0.416666666667     0.175100000000     0          
O        O      0.750533333333     0.360566666667     0.209500000000     0          
O        O      0.667666666667     0.371466666667     0.188200000000     0          
O        O      0.734466666667     0.350266666667     0.153400000000     0          
O        O      0.938966666667     0.416666666667     0.007450000000     0          
O        O      0.938400000000     0.350666666667     0.485100000000     0          
O        O      0.669166666667     0.369300000000     0.022850000000     0          
O        O      0.845833333333     0.514566666667     0.186750000000     0          
O        O      0.911566666667     0.466566666667     0.195900000000     0          
O        O      0.779066666667     0.416666666667     0.089150000000     0          
O        O      0.781700000000     0.485833333333     0.104400000000     0          
O        O      0.847200000000     0.583333333333     0.170400000000     0          
O        O      0.715166666667     0.532966666667     0.114000000000     0          
O        O      0.792300000000     0.536966666667     0.144050000000     0          
O        O      0.931900000000     0.583333333333     0.324900000000     0          
O        O      0.916133333333     0.527233333333     0.290500000000     0          
O        O      0.999000000000     0.538133333333     0.311800000000     0          
O        O      0.932200000000     0.516933333333     0.346600000000     0          
O        O      0.727700000000     0.583333333333     0.492550000000     0          
O        O      0.728266666667     0.517333333333     0.014900000000     0          
O        O      0.997500000000     0.535966666667     0.477150000000     0          
O        O      0.820833333333     0.347900000000     0.313250000000     0          
O        O      0.755100000000     0.633233333333     0.304100000000     0          
O        O      0.887600000000     0.583333333333     0.410850000000     0          
O        O      0.884966666667     0.652500000000     0.395600000000     0          
O        O      0.819466666667     0.416666666667     0.329600000000     0          
O        O      0.951500000000     0.366300000000     0.386000000000     0          
O        O      0.874366666667     0.370300000000     0.355950000000     0          
O        O      0.901433333333     0.416666666667     0.074900000000     0          
O        O      0.917200000000     0.472766666667     0.040500000000     0          
O        O      0.834333333333     0.461866666667     0.061800000000     0          
O        O      0.901133333333     0.483066666667     0.096600000000     0          
O        O      0.772300000000     0.416666666667     0.242550000000     0          
O        O      0.771733333333     0.482666666667     0.264900000000     0          
O        O      0.835833333333     0.464033333333     0.227150000000     0          
O        O      0.679166666667     0.652100000000     0.063250000000     0          
O        O      0.744900000000     0.366766666667     0.054100000000     0          
O        O      0.945733333333     0.416666666667     0.160850000000     0          
O        O      0.948366666667     0.347500000000     0.145600000000     0          
O        O      0.680533333333     0.583333333333     0.079600000000     0          
O        O      0.881833333333     0.633700000000     0.136000000000     0          
O        O      0.958966666667     0.629700000000     0.105950000000     0          
O        O      0.917200000000     0.360566666667     0.040500000000     0          
O        O      0.834333333333     0.371466666667     0.061800000000     0          
O        O      0.901133333333     0.350266666667     0.096600000000     0          
O        O      0.771733333333     0.350666666667     0.264900000000     0          
O        O      0.835833333333     0.369300000000     0.227150000000     0          
O        O      0.679166666667     0.514566666667     0.063250000000     0          
O        O      0.744900000000     0.466566666667     0.054100000000     0          
O        O      0.948366666667     0.485833333333     0.145600000000     0          
O        O      0.881833333333     0.532966666667     0.136000000000     0          
O        O      0.958966666667     0.536966666667     0.105950000000     0          
O        O      0.916133333333     0.639433333333     0.290500000000     0          
O        O      0.999000000000     0.628533333333     0.311800000000     0          
O        O      0.932200000000     0.649733333333     0.346600000000     0          
O        O      0.728266666667     0.649333333333     0.014900000000     0          
O        O      0.997500000000     0.630700000000     0.477150000000     0          
O        O      0.820833333333     0.485433333333     0.313250000000     0          
O        O      0.755100000000     0.533433333333     0.304100000000     0          
O        O      0.884966666667     0.514166666667     0.395600000000     0          
O        O      0.951500000000     0.467033333333     0.386000000000     0          
O        O      0.874366666667     0.463033333333     0.355950000000     0          
O        O      0.750533333333     0.472766666667     0.209500000000     0          
O        O      0.667666666667     0.461866666667     0.188200000000     0          
O        O      0.734466666667     0.483066666667     0.153400000000     0          
O        O      0.938400000000     0.482666666667     0.485100000000     0          
O        O      0.669166666667     0.464033333333     0.022850000000     0          
O        O      0.845833333333     0.652100000000     0.186750000000     0          
O        O      0.911566666667     0.366766666667     0.195900000000     0          
O        O      0.781700000000     0.347500000000     0.104400000000     0          
O        O      0.715166666667     0.633700000000     0.114000000000     0          
O        O      0.792300000000     0.629700000000     0.144050000000     0          
O        O      0.749466666667     0.527233333333     0.459500000000     0          
O        O      0.832333333333     0.538133333333     0.438200000000     0          
O        O      0.765533333333     0.516933333333     0.403400000000     0          
O        O      0.894933333333     0.517333333333     0.235100000000     0          
O        O      0.830833333333     0.535966666667     0.272850000000     0          
O        O      0.987500000000     0.347900000000     0.436750000000     0          
O        O      0.921766666667     0.633233333333     0.445900000000     0          
O        O      0.718300000000     0.652500000000     0.354400000000     0          
O        O      0.784833333333     0.366300000000     0.364000000000     0          
O        O      0.707700000000     0.370300000000     0.394050000000     0          
O        O      0.765233333333     0.583333333333     0.925100000000     0          
O        O      0.749466666667     0.639433333333     0.959500000000     0          
O        O      0.832333333333     0.628533333333     0.938200000000     0          
O        O      0.765533333333     0.649733333333     0.903400000000     0          
O        O      0.894366666667     0.583333333333     0.757450000000     0          
O        O      0.894933333333     0.649333333333     0.735100000000     0          
O        O      0.830833333333     0.630700000000     0.772850000000     0          
O        O      0.987500000000     0.485433333333     0.936750000000     0          
O        O      0.921766666667     0.533433333333     0.945900000000     0          
O        O      0.720933333333     0.583333333333     0.839150000000     0          
O        O      0.718300000000     0.514166666667     0.854400000000     0          
O        O      0.986133333333     0.416666666667     0.920400000000     0          
O        O      0.784833333333     0.467033333333     0.864000000000     0          
O        O      0.707700000000     0.463033333333     0.894050000000     0          
O        O      0.734766666667     0.416666666667     0.675100000000     0          
O        O      0.750533333333     0.360566666667     0.709500000000     0          
O        O      0.667666666667     0.371466666667     0.688200000000     0          
O        O      0.734466666667     0.350266666667     0.653400000000     0          
O        O      0.938966666667     0.416666666667     0.507450000000     0          
O        O      0.938400000000     0.350666666667     0.985100000000     0          
O        O      0.669166666667     0.369300000000     0.522850000000     0          
O        O      0.845833333333     0.514566666667     0.686750000000     0          
O        O      0.911566666667     0.466566666667     0.695900000000     0          
O        O      0.779066666667     0.416666666667     0.589150000000     0          
O        O      0.781700000000     0.485833333333     0.604400000000     0          
O        O      0.847200000000     0.583333333333     0.670400000000     0          
O        O      0.715166666667     0.532966666667     0.614000000000     0          
O        O      0.792300000000     0.536966666667     0.644050000000     0          
O        O      0.931900000000     0.583333333333     0.824900000000     0          
O        O      0.916133333333     0.527233333333     0.790500000000     0          
O        O      0.999000000000     0.538133333333     0.811800000000     0          
O        O      0.932200000000     0.516933333333     0.846600000000     0          
O        O      0.727700000000     0.583333333333     0.992550000000     0          
O        O      0.728266666667     0.517333333333     0.514900000000     0          
O        O      0.997500000000     0.535966666667     0.977150000000     0          
O        O      0.820833333333     0.347900000000     0.813250000000     0          
O        O      0.755100000000     0.633233333333     0.804100000000     0          
O        O      0.887600000000     0.583333333333     0.910850000000     0          
O        O      0.884966666667     0.652500000000     0.895600000000     0          
O        O      0.819466666667     0.416666666667     0.829600000000     0          
O        O      0.951500000000     0.366300000000     0.886000000000     0          
O        O      0.874366666667     0.370300000000     0.855950000000     0          
O        O      0.901433333333     0.416666666667     0.574900000000     0          
O        O      0.917200000000     0.472766666667     0.540500000000     0          
O        O      0.834333333333     0.461866666667     0.561800000000     0          
O        O      0.901133333333     0.483066666667     0.596600000000     0          
O        O      0.772300000000     0.416666666667     0.742550000000     0          
O        O      0.771733333333     0.482666666667     0.764900000000     0          
O        O      0.835833333333     0.464033333333     0.727150000000     0          
O        O      0.679166666667     0.652100000000     0.563250000000     0          
O        O      0.744900000000     0.366766666667     0.554100000000     0          
O        O      0.945733333333     0.416666666667     0.660850000000     0          
O        O      0.948366666667     0.347500000000     0.645600000000     0          
O        O      0.680533333333     0.583333333333     0.579600000000     0          
O        O      0.881833333333     0.633700000000     0.636000000000     0          
O        O      0.958966666667     0.629700000000     0.605950000000     0          
O        O      0.917200000000     0.360566666667     0.540500000000     0          
O        O      0.834333333333     0.371466666667     0.561800000000     0          
O        O      0.901133333333     0.350266666667     0.596600000000     0          
O        O      0.771733333333     0.350666666667     0.764900000000     0          
O        O      0.835833333333     0.369300000000     0.727150000000     0          
O        O      0.679166666667     0.514566666667     0.563250000000     0          
O        O      0.744900000000     0.466566666667     0.554100000000     0          
O        O      0.948366666667     0.485833333333     0.645600000000     0          
O        O      0.881833333333     0.532966666667     0.636000000000     0          
O        O      0.958966666667     0.536966666667     0.605950000000     0          
O        O      0.916133333333     0.639433333333     0.790500000000     0          
O        O      0.999000000000     0.628533333333     0.811800000000     0          
O        O      0.932200000000     0.649733333333     0.846600000000     0          
O        O      0.728266666667     0.649333333333     0.514900000000     0          
O        O      0.997500000000     0.630700000000     0.977150000000     0          
O        O      0.820833333333     0.485433333333     0.813250000000     0          
O        O      0.755100000000     0.533433333333     0.804100000000     0          
O        O      0.884966666667     0.514166666667     0.895600000000     0          
O        O      0.951500000000     0.467033333333     0.886000000000     0          
O        O      0.874366666667     0.463033333333     0.855950000000     0          
O        O      0.750533333333     0.472766666667     0.709500000000     0          
O        O      0.667666666667     0.461866666667     0.688200000000     0          
O        O      0.734466666667     0.483066666667     0.653400000000     0          
O        O      0.938400000000     0.482666666667     0.985100000000     0          
O        O      0.669166666667     0.464033333333     0.522850000000     0          
O        O      0.845833333333     0.652100000000     0.686750000000     0          
O        O      0.911566666667     0.366766666667     0.695900000000     0          
O        O      0.781700000000     0.347500000000     0.604400000000     0          
O        O      0.715166666667     0.633700000000     0.614000000000     0          
O        O      0.792300000000     0.629700000000     0.644050000000     0          
O        O      0.749466666667     0.527233333333     0.959500000000     0          
O        O      0.832333333333     0.538133333333     0.938200000000     0          
O        O      0.765533333333     0.516933333333     0.903400000000     0          
O        O      0.894933333333     0.517333333333     0.735100000000     0          
O        O      0.830833333333     0.535966666667     0.772850000000     0          
O        O      0.987500000000     0.347900000000     0.936750000000     0          
O        O      0.921766666667     0.633233333333     0.945900000000     0          
O        O      0.718300000000     0.652500000000     0.854400000000     0          
O        O      0.784833333333     0.366300000000     0.864000000000     0          
O        O      0.707700000000     0.370300000000     0.894050000000     0          
O        O      0.765233333333     0.916666666667     0.425100000000     0          
O        O      0.749466666667     0.972766666667     0.459500000000     0          
O        O      0.832333333333     0.961866666667     0.438200000000     0          
O        O      0.765533333333     0.983066666667     0.403400000000     0          
O        O      0.894366666667     0.916666666667     0.257450000000     0          
O        O      0.894933333333     0.982666666667     0.235100000000     0          
O        O      0.830833333333     0.964033333333     0.272850000000     0          
O        O      0.987500000000     0.818766666667     0.436750000000     0          
O        O      0.921766666667     0.866766666667     0.445900000000     0          
O        O      0.720933333333     0.916666666667     0.339150000000     0          
O        O      0.718300000000     0.847500000000     0.354400000000     0          
O        O      0.986133333333     0.750000000000     0.420400000000     0          
O        O      0.784833333333     0.800366666667     0.364000000000     0          
O        O      0.707700000000     0.796366666667     0.394050000000     0          
O        O      0.734766666667     0.750000000000     0.175100000000     0          
O        O      0.750533333333     0.693900000000     0.209500000000     0          
O        O      0.667666666667     0.704800000000     0.188200000000     0          
O        O      0.734466666667     0.683600000000     0.153400000000     0          
O        O      0.938966666667     0.750000000000     0.007450000000     0          
O        O      0.938400000000     0.684000000000     0.485100000000     0          
O        O      0.669166666667     0.702633333333     0.022850000000     0          
O        O      0.845833333333     0.847900000000     0.186750000000     0          
O        O      0.911566666667     0.799900000000     0.195900000000     0          
O        O      0.779066666667     0.750000000000     0.089150000000     0          
O        O      0.781700000000     0.819166666667     0.104400000000     0          
O        O      0.847200000000     0.916666666667     0.170400000000     0          
O        O      0.715166666667     0.866300000000     0.114000000000     0          
O        O      0.792300000000     0.870300000000     0.144050000000     0          
O        O      0.931900000000     0.916666666667     0.324900000000     0          
O        O      0.916133333333     0.860566666667     0.290500000000     0          
O        O      0.999000000000     0.871466666667     0.311800000000     0          
O        O      0.932200000000     0.850266666667     0.346600000000     0          
O        O      0.727700000000     0.916666666667     0.492550000000     0          
O        O      0.728266666667     0.850666666667     0.014900000000     0          
O        O      0.997500000000     0.869300000000     0.477150000000     0          
O        O      0.820833333333     0.681233333333     0.313250000000     0          
O        O      0.755100000000     0.966566666667     0.304100000000     0          
O        O      0.887600000000     0.916666666667     0.410850000000     0          
O        O      0.884966666667     0.985833333333     0.395600000000     0          
O        O      0.819466666667     0.750000000000     0.329600000000     0          
O        O      0.951500000000     0.699633333333     0.386000000000     0          
O        O      0.874366666667     0.703633333333     0.355950000000     0          
O        O      0.901433333333     0.750000000000     0.074900000000     0          
O        O      0.917200000000     0.806100000000     0.040500000000     0          
O        O      0.834333333333     0.795200000000     0.061800000000     0          
O        O      0.901133333333     0.816400000000     0.096600000000     0          
O        O      0.772300000000     0.750000000000     0.242550000000     0          
O        O      0.771733333333     0.816000000000     0.264900000000     0          
O        O      0.835833333333     0.797366666667     0.227150000000     0          
O        O      0.679166666667     0.985433333333     0.063250000000     0          
O        O      0.744900000000     0.700100000000     0.054100000000     0          
O        O      0.945733333333     0.750000000000     0.160850000000     0          
O        O      0.948366666667     0.680833333333     0.145600000000     0          
O        O      0.680533333333     0.916666666667     0.079600000000     0          
O        O      0.881833333333     0.967033333333     0.136000000000     0          
O        O      0.958966666667     0.963033333333     0.105950000000     0          
O        O      0.917200000000     0.693900000000     0.040500000000     0          
O        O      0.834333333333     0.704800000000     0.061800000000     0          
O        O      0.901133333333     0.683600000000     0.096600000000     0          
O        O      0.771733333333     0.684000000000     0.264900000000     0          
O        O      0.835833333333     0.702633333333     0.227150000000     0          
O        O      0.679166666667     0.847900000000     0.063250000000     0          
O        O      0.744900000000     0.799900000000     0.054100000000     0          
O        O      0.948366666667     0.819166666667     0.145600000000     0          
O        O      0.881833333333     0.866300000000     0.136000000000     0          
O        O      0.958966666667     0.870300000000     0.105950000000     0          
O        O      0.916133333333     0.972766666667     0.290500000000     0          
O        O      0.999000000000     0.961866666667     0.311800000000     0          
O        O      0.932200000000     0.983066666667     0.346600000000     0          
O        O      0.728266666667     0.982666666667     0.014900000000     0          
O        O      0.997500000000     0.964033333333     0.477150000000     0          
O        O      0.820833333333     0.818766666667     0.313250000000     0          
O        O      0.755100000000     0.866766666667     0.304100000000     0          
O        O      0.884966666667     0.847500000000     0.395600000000     0          
O        O      0.951500000000     0.800366666667     0.386000000000     0          
O        O      0.874366666667     0.796366666667     0.355950000000     0          
O        O      0.750533333333     0.806100000000     0.209500000000     0          
O        O      0.667666666667     0.795200000000     0.188200000000     0          
O        O      0.734466666667     0.816400000000     0.153400000000     0          
O        O      0.938400000000     0.816000000000     0.485100000000     0          
O        O      0.669166666667     0.797366666667     0.022850000000     0          
O        O      0.845833333333     0.985433333333     0.186750000000     0          
O        O      0.911566666667     0.700100000000     0.195900000000     0          
O        O      0.781700000000     0.680833333333     0.104400000000     0          
O        O      0.715166666667     0.967033333333     0.114000000000     0          
O        O      0.792300000000     0.963033333333     0.144050000000     0          
O        O      0.749466666667     0.860566666667     0.459500000000     0          
O        O      0.832333333333     0.871466666667     0.438200000000     0          
O        O      0.765533333333     0.850266666667     0.403400000000     0          
O        O      0.894933333333     0.850666666667     0.235100000000     0          
O        O      0.830833333333     0.869300000000     0.272850000000     0          
O        O      0.987500000000     0.681233333333     0.436750000000     0          
O        O      0.921766666667     0.966566666667     0.445900000000     0          
O        O      0.718300000000     0.985833333333     0.354400000000     0          
O        O      0.784833333333     0.699633333333     0.364000000000     0          
O        O      0.707700000000     0.703633333333     0.394050000000     0          
O        O      0.765233333333     0.916666666667     0.925100000000     0          
O        O      0.749466666667     0.972766666667     0.959500000000     0          
O        O      0.832333333333     0.961866666667     0.938200000000     0          
O        O      0.765533333333     0.983066666667     0.903400000000     0          
O        O      0.894366666667     0.916666666667     0.757450000000     0          
O        O      0.894933333333     0.982666666667     0.735100000000     0          
O        O      0.830833333333     0.964033333333     0.772850000000     0          
O        O      0.987500000000     0.818766666667     0.936750000000     0          
O        O      0.921766666667     0.866766666667     0.945900000000     0          
O        O      0.720933333333     0.916666666667     0.839150000000     0          
O        O      0.718300000000     0.847500000000     0.854400000000     0          
O        O      0.986133333333     0.750000000000     0.920400000000     0          
O        O      0.784833333333     0.800366666667     0.864000000000     0          
O        O      0.707700000000     0.796366666667     0.894050000000     0          
O        O      0.734766666667     0.750000000000     0.675100000000     0          
O        O      0.750533333333     0.693900000000     0.709500000000     0          
O        O      0.667666666667     0.704800000000     0.688200000000     0          
O        O      0.734466666667     0.683600000000     0.653400000000     0          
O        O      0.938966666667     0.750000000000     0.507450000000     0          
O        O      0.938400000000     0.684000000000     0.985100000000     0          
O        O      0.669166666667     0.702633333333     0.522850000000     0          
O        O      0.845833333333     0.847900000000     0.686750000000     0          
O        O      0.911566666667     0.799900000000     0.695900000000     0          
O        O      0.779066666667     0.750000000000     0.589150000000     0          
O        O      0.781700000000     0.819166666667     0.604400000000     0          
O        O      0.847200000000     0.916666666667     0.670400000000     0          
O        O      0.715166666667     0.866300000000     0.614000000000     0          
O        O      0.792300000000     0.870300000000     0.644050000000     0          
O        O      0.931900000000     0.916666666667     0.824900000000     0          
O        O      0.916133333333     0.860566666667     0.790500000000     0          
O        O      0.999000000000     0.871466666667     0.811800000000     0          
O        O      0.932200000000     0.850266666667     0.846600000000     0          
O        O      0.727700000000     0.916666666667     0.992550000000     0          
O        O      0.728266666667     0.850666666667     0.514900000000     0          
O        O      0.997500000000     0.869300000000     0.977150000000     0          
O        O      0.820833333333     0.681233333333     0.813250000000     0          
O        O      0.755100000000     0.966566666667     0.804100000000     0          
O        O      0.887600000000     0.916666666667     0.910850000000     0          
O        O      0.884966666667     0.985833333333     0.895600000000     0          
O        O      0.819466666667     0.750000000000     0.829600000000     0          
O        O      0.951500000000     0.699633333333     0.886000000000     0          
O        O      0.874366666667     0.703633333333     0.855950000000     0          
O        O      0.901433333333     0.750000000000     0.574900000000     0          
O        O      0.917200000000     0.806100000000     0.540500000000     0          
O        O      0.834333333333     0.795200000000     0.561800000000     0          
O        O      0.901133333333     0.816400000000     0.596600000000     0          
O        O      0.772300000000     0.750000000000     0.742550000000     0          
O        O      0.771733333333     0.816000000000     0.764900000000     0          
O        O      0.835833333333     0.797366666667     0.727150000000     0          
O        O      0.679166666667     0.985433333333     0.563250000000     0          
O        O      0.744900000000     0.700100000000     0.554100000000     0          
O        O      0.945733333333     0.750000000000     0.660850000000     0          
O        O      0.948366666667     0.680833333333     0.645600000000     0          
O        O      0.680533333333     0.916666666667     0.579600000000     0          
O        O      0.881833333333     0.967033333333     0.636000000000     0          
O        O      0.958966666667     0.963033333333     0.605950000000     0          
O        O      0.917200000000     0.693900000000     0.540500000000     0          
O        O      0.834333333333     0.704800000000     0.561800000000     0          
O        O      0.901133333333     0.683600000000     0.596600000000     0          
O        O      0.771733333333     0.684000000000     0.764900000000     0          
O        O      0.835833333333     0.702633333333     0.727150000000     0          
O        O      0.679166666667     0.847900000000     0.563250000000     0          
O        O      0.744900000000     0.799900000000     0.554100000000     0          
O        O      0.948366666667     0.819166666667     0.645600000000     0          
O        O      0.881833333333     0.866300000000     0.636000000000     0          
O        O      0.958966666667     0.870300000000     0.605950000000     0          
O        O      0.916133333333     0.972766666667     0.790500000000     0          
O        O      0.999000000000     0.961866666667     0.811800000000     0          
O        O      0.932200000000     0.983066666667     0.846600000000     0          
O        O      0.728266666667     0.982666666667     0.514900000000     0          
O        O      0.997500000000     0.964033333333     0.977150000000     0          
O        O      0.820833333333     0.818766666667     0.813250000000     0          
O        O      0.755100000000     0.866766666667     0.804100000000     0          
O        O      0.884966666667     0.847500000000     0.895600000000     0          
O        O      0.951500000000     0.800366666667     0.886000000000     0          
O        O      0.874366666667     0.796366666667     0.855950000000     0          
O        O      0.750533333333     0.806100000000     0.709500000000     0          
O        O      0.667666666667     0.795200000000     0.688200000000     0          
O        O      0.734466666667     0.816400000000     0.653400000000     0          
O        O      0.938400000000     0.816000000000     0.985100000000     0          
O        O      0.669166666667     0.797366666667     0.522850000000     0          
O        O      0.845833333333     0.985433333333     0.686750000000     0          
O        O      0.911566666667     0.700100000000     0.695900000000     0          
O        O      0.781700000000     0.680833333333     0.604400000000     0          
O        O      0.715166666667     0.967033333333     0.614000000000     0          
O        O      0.792300000000     0.963033333333     0.644050000000     0          
O        O      0.749466666667     0.860566666667     0.959500000000     0          
O        O      0.832333333333     0.871466666667     0.938200000000     0          
O        O      0.765533333333     0.850266666667     0.903400000000     0          
O        O      0.894933333333     0.850666666667     0.735100000000     0          
O        O      0.830833333333     0.869300000000     0.772850000000     0          
O        O      0.987500000000     0.681233333333     0.936750000000     0          
O        O      0.921766666667     0.966566666667     0.945900000000     0          
O        O      0.718300000000     0.985833333333     0.854400000000     0          
O        O      0.784833333333     0.699633333333     0.864000000000     0          
O        O      0.707700000000     0.703633333333     0.894050000000     0          


