data_zeolite

_audit_creation_method RASPA-1.0
_audit_creation_date 2022-1-5
_audit_author_name ''

_cell_length_a    31.3735
_cell_length_b    27.7607
_cell_length_c    27.2023
_cell_angle_alpha 90
_cell_angle_beta  90
_cell_angle_gamma 90
_cell_volume      23691.8

_symmetry_cell_setting          orthorhombic
_symmetry_space_group_name_Hall 'P 1'
_symmetry_space_group_name_H-M  'P 1'
_symmetry_Int_Tables_number     1

_symmetry_equiv_pos_as_xyz 'x,y,z'

loop_
_atom_site_label
_atom_site_type_symbol
_atom_site_fract_x
_atom_site_fract_y
_atom_site_fract_z
_atom_site_charge
Si       Si     0.085940000000     0.221710000000     0.102300000000     0          
Si       Si     0.086073333333     0.024870000000     0.100080000000     0          
Si       Si     0.083746666667     0.125760000000     0.044360000000     0          
Si       Si     0.116556666667     0.179740000000     0.196240000000     0          
Si       Si     0.116996666667     0.070540000000     0.193320000000     0          
Si       Si     0.000000000000     0.266010000000     0.064240000000     0          
Si       Si     0.000000000000     0.475600000000     0.053530000000     0          
Si       Si     0.000000000000     0.018750000000     0.555920000000     0          
Si       Si     0.000000000000     0.230950000000     0.547940000000     0          
Si       Si     0.000000000000     0.366420000000     0.021480000000     0          
Si       Si     0.000000000000     0.124330000000     0.523600000000     0          
O        O      0.042083333333     0.250650000000     0.094150000000     0          
O        O      0.077926666667     0.166870000000     0.085470000000     0          
O        O      0.124716666667     0.246090000000     0.072730000000     0          
O        O      0.096333333333     0.219690000000     0.160260000000     0          
O        O      0.124813333333     0.990110000000     0.084370000000     0          
O        O      0.091730000000     0.074630000000     0.070490000000     0          
O        O      0.041580000000     0.000320000000     0.084740000000     0          
O        O      0.089086666667     0.036070000000     0.158100000000     0          
O        O      0.041840000000     0.123200000000     0.010520000000     0          
O        O      0.124636666667     0.139580000000     0.011680000000     0          
O        O      0.109706666667     0.125620000000     0.176550000000     0          
O        O      0.095306666667     0.184420000000     0.250000000000     0          
O        O      0.166666666667     0.190730000000     0.201670000000     0          
O        O      0.166666666667     0.057130000000     0.187380000000     0          
O        O      0.103256666667     0.064070000000     0.250000000000     0          
O        O      0.000000000000     0.323970000000     0.061790000000     0          
O        O      0.000000000000     0.243240000000     0.009890000000     0          
O        O      0.000000000000     0.417840000000     0.048650000000     0          
O        O      0.000000000000     0.500000000000     0.000000000000     0          
O        O      0.000000000000     0.076790000000     0.557490000000     0          
O        O      0.000000000000     0.000000000000     0.500000000000     0          
O        O      0.000000000000     0.173330000000     0.555280000000     0          
Si       Si     0.247393333333     0.778290000000     0.602300000000     0          
Si       Si     0.247260000000     0.975130000000     0.600080000000     0          
Si       Si     0.249586666667     0.874240000000     0.544360000000     0          
Si       Si     0.216776666667     0.820260000000     0.696240000000     0          
Si       Si     0.216336666667     0.929460000000     0.693320000000     0          
Si       Si     0.000000000000     0.733990000000     0.564240000000     0          
Si       Si     0.000000000000     0.524400000000     0.553530000000     0          
Si       Si     0.000000000000     0.981250000000     0.055920000000     0          
Si       Si     0.000000000000     0.769050000000     0.047940000000     0          
Si       Si     0.000000000000     0.633580000000     0.521480000000     0          
Si       Si     0.000000000000     0.875670000000     0.023600000000     0          
O        O      0.291250000000     0.749350000000     0.594150000000     0          
O        O      0.255406666667     0.833130000000     0.585470000000     0          
O        O      0.208616666667     0.753910000000     0.572730000000     0          
O        O      0.237000000000     0.780310000000     0.660260000000     0          
O        O      0.208520000000     0.009890000000     0.584370000000     0          
O        O      0.241603333333     0.925370000000     0.570490000000     0          
O        O      0.291753333333     0.999680000000     0.584740000000     0          
O        O      0.244246666667     0.963930000000     0.658100000000     0          
O        O      0.291493333333     0.876800000000     0.510520000000     0          
O        O      0.208696666667     0.860420000000     0.511680000000     0          
O        O      0.223626666667     0.874380000000     0.676550000000     0          
O        O      0.238026666667     0.815580000000     0.750000000000     0          
O        O      0.166666666667     0.809270000000     0.701670000000     0          
O        O      0.166666666667     0.942870000000     0.687380000000     0          
O        O      0.230076666667     0.935930000000     0.750000000000     0          
O        O      0.000000000000     0.676030000000     0.561790000000     0          
O        O      0.000000000000     0.756760000000     0.509890000000     0          
O        O      0.000000000000     0.582160000000     0.548650000000     0          
O        O      0.000000000000     0.500000000000     0.500000000000     0          
O        O      0.000000000000     0.923210000000     0.057490000000     0          
O        O      0.000000000000     0.000000000000     0.000000000000     0          
O        O      0.000000000000     0.826670000000     0.055280000000     0          
Si       Si     0.085940000000     0.778290000000     0.897700000000     0          
Si       Si     0.086073333333     0.975130000000     0.899920000000     0          
Si       Si     0.083746666667     0.874240000000     0.955640000000     0          
Si       Si     0.116556666667     0.820260000000     0.803760000000     0          
Si       Si     0.116996666667     0.929460000000     0.806680000000     0          
Si       Si     0.000000000000     0.733990000000     0.935760000000     0          
Si       Si     0.000000000000     0.524400000000     0.946470000000     0          
Si       Si     0.000000000000     0.981250000000     0.444080000000     0          
Si       Si     0.000000000000     0.769050000000     0.452060000000     0          
Si       Si     0.000000000000     0.633580000000     0.978520000000     0          
Si       Si     0.000000000000     0.875670000000     0.476400000000     0          
O        O      0.042083333333     0.749350000000     0.905850000000     0          
O        O      0.077926666667     0.833130000000     0.914530000000     0          
O        O      0.124716666667     0.753910000000     0.927270000000     0          
O        O      0.096333333333     0.780310000000     0.839740000000     0          
O        O      0.124813333333     0.009890000000     0.915630000000     0          
O        O      0.091730000000     0.925370000000     0.929510000000     0          
O        O      0.041580000000     0.999680000000     0.915260000000     0          
O        O      0.089086666667     0.963930000000     0.841900000000     0          
O        O      0.041840000000     0.876800000000     0.989480000000     0          
O        O      0.124636666667     0.860420000000     0.988320000000     0          
O        O      0.109706666667     0.874380000000     0.823450000000     0          
O        O      0.095306666667     0.815580000000     0.750000000000     0          
O        O      0.166666666667     0.809270000000     0.798330000000     0          
O        O      0.166666666667     0.942870000000     0.812620000000     0          
O        O      0.103256666667     0.935930000000     0.750000000000     0          
O        O      0.000000000000     0.676030000000     0.938210000000     0          
O        O      0.000000000000     0.756760000000     0.990110000000     0          
O        O      0.000000000000     0.582160000000     0.951350000000     0          
O        O      0.000000000000     0.923210000000     0.442510000000     0          
O        O      0.000000000000     0.826670000000     0.444720000000     0          
Si       Si     0.247393333333     0.221710000000     0.397700000000     0          
Si       Si     0.247260000000     0.024870000000     0.399920000000     0          
Si       Si     0.249586666667     0.125760000000     0.455640000000     0          
Si       Si     0.216776666667     0.179740000000     0.303760000000     0          
Si       Si     0.216336666667     0.070540000000     0.306680000000     0          
Si       Si     0.000000000000     0.266010000000     0.435760000000     0          
Si       Si     0.000000000000     0.475600000000     0.446470000000     0          
Si       Si     0.000000000000     0.018750000000     0.944080000000     0          
Si       Si     0.000000000000     0.230950000000     0.952060000000     0          
Si       Si     0.000000000000     0.366420000000     0.478520000000     0          
Si       Si     0.000000000000     0.124330000000     0.976400000000     0          
O        O      0.291250000000     0.250650000000     0.405850000000     0          
O        O      0.255406666667     0.166870000000     0.414530000000     0          
O        O      0.208616666667     0.246090000000     0.427270000000     0          
O        O      0.237000000000     0.219690000000     0.339740000000     0          
O        O      0.208520000000     0.990110000000     0.415630000000     0          
O        O      0.241603333333     0.074630000000     0.429510000000     0          
O        O      0.291753333333     0.000320000000     0.415260000000     0          
O        O      0.244246666667     0.036070000000     0.341900000000     0          
O        O      0.291493333333     0.123200000000     0.489480000000     0          
O        O      0.208696666667     0.139580000000     0.488320000000     0          
O        O      0.223626666667     0.125620000000     0.323450000000     0          
O        O      0.238026666667     0.184420000000     0.250000000000     0          
O        O      0.166666666667     0.190730000000     0.298330000000     0          
O        O      0.166666666667     0.057130000000     0.312620000000     0          
O        O      0.230076666667     0.064070000000     0.250000000000     0          
O        O      0.000000000000     0.323970000000     0.438210000000     0          
O        O      0.000000000000     0.243240000000     0.490110000000     0          
O        O      0.000000000000     0.417840000000     0.451350000000     0          
O        O      0.000000000000     0.076790000000     0.942510000000     0          
O        O      0.000000000000     0.173330000000     0.944720000000     0          
Si       Si     0.247393333333     0.778290000000     0.897700000000     0          
Si       Si     0.247260000000     0.975130000000     0.899920000000     0          
Si       Si     0.249586666667     0.874240000000     0.955640000000     0          
Si       Si     0.216776666667     0.820260000000     0.803760000000     0          
Si       Si     0.216336666667     0.929460000000     0.806680000000     0          
O        O      0.291250000000     0.749350000000     0.905850000000     0          
O        O      0.255406666667     0.833130000000     0.914530000000     0          
O        O      0.208616666667     0.753910000000     0.927270000000     0          
O        O      0.237000000000     0.780310000000     0.839740000000     0          
O        O      0.208520000000     0.009890000000     0.915630000000     0          
O        O      0.241603333333     0.925370000000     0.929510000000     0          
O        O      0.291753333333     0.999680000000     0.915260000000     0          
O        O      0.244246666667     0.963930000000     0.841900000000     0          
O        O      0.291493333333     0.876800000000     0.989480000000     0          
O        O      0.208696666667     0.860420000000     0.988320000000     0          
O        O      0.223626666667     0.874380000000     0.823450000000     0          
Si       Si     0.085940000000     0.221710000000     0.397700000000     0          
Si       Si     0.086073333333     0.024870000000     0.399920000000     0          
Si       Si     0.083746666667     0.125760000000     0.455640000000     0          
Si       Si     0.116556666667     0.179740000000     0.303760000000     0          
Si       Si     0.116996666667     0.070540000000     0.306680000000     0          
O        O      0.042083333333     0.250650000000     0.405850000000     0          
O        O      0.077926666667     0.166870000000     0.414530000000     0          
O        O      0.124716666667     0.246090000000     0.427270000000     0          
O        O      0.096333333333     0.219690000000     0.339740000000     0          
O        O      0.124813333333     0.990110000000     0.415630000000     0          
O        O      0.091730000000     0.074630000000     0.429510000000     0          
O        O      0.041580000000     0.000320000000     0.415260000000     0          
O        O      0.089086666667     0.036070000000     0.341900000000     0          
O        O      0.041840000000     0.123200000000     0.489480000000     0          
O        O      0.124636666667     0.139580000000     0.488320000000     0          
O        O      0.109706666667     0.125620000000     0.323450000000     0          
Si       Si     0.247393333333     0.221710000000     0.102300000000     0          
Si       Si     0.247260000000     0.024870000000     0.100080000000     0          
Si       Si     0.249586666667     0.125760000000     0.044360000000     0          
Si       Si     0.216776666667     0.179740000000     0.196240000000     0          
Si       Si     0.216336666667     0.070540000000     0.193320000000     0          
O        O      0.291250000000     0.250650000000     0.094150000000     0          
O        O      0.255406666667     0.166870000000     0.085470000000     0          
O        O      0.208616666667     0.246090000000     0.072730000000     0          
O        O      0.237000000000     0.219690000000     0.160260000000     0          
O        O      0.208520000000     0.990110000000     0.084370000000     0          
O        O      0.241603333333     0.074630000000     0.070490000000     0          
O        O      0.291753333333     0.000320000000     0.084740000000     0          
O        O      0.244246666667     0.036070000000     0.158100000000     0          
O        O      0.291493333333     0.123200000000     0.010520000000     0          
O        O      0.208696666667     0.139580000000     0.011680000000     0          
O        O      0.223626666667     0.125620000000     0.176550000000     0          
Si       Si     0.085940000000     0.778290000000     0.602300000000     0          
Si       Si     0.086073333333     0.975130000000     0.600080000000     0          
Si       Si     0.083746666667     0.874240000000     0.544360000000     0          
Si       Si     0.116556666667     0.820260000000     0.696240000000     0          
Si       Si     0.116996666667     0.929460000000     0.693320000000     0          
O        O      0.042083333333     0.749350000000     0.594150000000     0          
O        O      0.077926666667     0.833130000000     0.585470000000     0          
O        O      0.124716666667     0.753910000000     0.572730000000     0          
O        O      0.096333333333     0.780310000000     0.660260000000     0          
O        O      0.124813333333     0.009890000000     0.584370000000     0          
O        O      0.091730000000     0.925370000000     0.570490000000     0          
O        O      0.041580000000     0.999680000000     0.584740000000     0          
O        O      0.089086666667     0.963930000000     0.658100000000     0          
O        O      0.041840000000     0.876800000000     0.510520000000     0          
O        O      0.124636666667     0.860420000000     0.511680000000     0          
O        O      0.109706666667     0.874380000000     0.676550000000     0          
Si       Si     0.252606666667     0.721710000000     0.102300000000     0          
Si       Si     0.252740000000     0.524870000000     0.100080000000     0          
Si       Si     0.250413333333     0.625760000000     0.044360000000     0          
Si       Si     0.283223333333     0.679740000000     0.196240000000     0          
Si       Si     0.283663333333     0.570540000000     0.193320000000     0          
Si       Si     0.166666666667     0.766010000000     0.064240000000     0          
Si       Si     0.166666666667     0.975600000000     0.053530000000     0          
Si       Si     0.166666666667     0.518750000000     0.555920000000     0          
Si       Si     0.166666666667     0.730950000000     0.547940000000     0          
Si       Si     0.166666666667     0.866420000000     0.021480000000     0          
Si       Si     0.166666666667     0.624330000000     0.523600000000     0          
O        O      0.208750000000     0.750650000000     0.094150000000     0          
O        O      0.244593333333     0.666870000000     0.085470000000     0          
O        O      0.291383333333     0.746090000000     0.072730000000     0          
O        O      0.263000000000     0.719690000000     0.160260000000     0          
O        O      0.291480000000     0.490110000000     0.084370000000     0          
O        O      0.258396666667     0.574630000000     0.070490000000     0          
O        O      0.208246666667     0.500320000000     0.084740000000     0          
O        O      0.255753333333     0.536070000000     0.158100000000     0          
O        O      0.208506666667     0.623200000000     0.010520000000     0          
O        O      0.291303333333     0.639580000000     0.011680000000     0          
O        O      0.276373333333     0.625620000000     0.176550000000     0          
O        O      0.261973333333     0.684420000000     0.250000000000     0          
O        O      0.000000000000     0.690730000000     0.201670000000     0          
O        O      0.000000000000     0.557130000000     0.187380000000     0          
O        O      0.269923333333     0.564070000000     0.250000000000     0          
O        O      0.166666666667     0.823970000000     0.061790000000     0          
O        O      0.166666666667     0.743240000000     0.009890000000     0          
O        O      0.166666666667     0.917840000000     0.048650000000     0          
O        O      0.166666666667     0.000000000000     0.000000000000     0          
O        O      0.166666666667     0.576790000000     0.557490000000     0          
O        O      0.166666666667     0.500000000000     0.500000000000     0          
O        O      0.166666666667     0.673330000000     0.555280000000     0          
Si       Si     0.080726666667     0.278290000000     0.602300000000     0          
Si       Si     0.080593333333     0.475130000000     0.600080000000     0          
Si       Si     0.082920000000     0.374240000000     0.544360000000     0          
Si       Si     0.050110000000     0.320260000000     0.696240000000     0          
Si       Si     0.049670000000     0.429460000000     0.693320000000     0          
Si       Si     0.166666666667     0.233990000000     0.564240000000     0          
Si       Si     0.166666666667     0.024400000000     0.553530000000     0          
Si       Si     0.166666666667     0.481250000000     0.055920000000     0          
Si       Si     0.166666666667     0.269050000000     0.047940000000     0          
Si       Si     0.166666666667     0.133580000000     0.521480000000     0          
Si       Si     0.166666666667     0.375670000000     0.023600000000     0          
O        O      0.124583333333     0.249350000000     0.594150000000     0          
O        O      0.088740000000     0.333130000000     0.585470000000     0          
O        O      0.041950000000     0.253910000000     0.572730000000     0          
O        O      0.070333333333     0.280310000000     0.660260000000     0          
O        O      0.041853333333     0.509890000000     0.584370000000     0          
O        O      0.074936666667     0.425370000000     0.570490000000     0          
O        O      0.125086666667     0.499680000000     0.584740000000     0          
O        O      0.077580000000     0.463930000000     0.658100000000     0          
O        O      0.124826666667     0.376800000000     0.510520000000     0          
O        O      0.042030000000     0.360420000000     0.511680000000     0          
O        O      0.056960000000     0.374380000000     0.676550000000     0          
O        O      0.071360000000     0.315580000000     0.750000000000     0          
O        O      0.000000000000     0.309270000000     0.701670000000     0          
O        O      0.000000000000     0.442870000000     0.687380000000     0          
O        O      0.063410000000     0.435930000000     0.750000000000     0          
O        O      0.166666666667     0.176030000000     0.561790000000     0          
O        O      0.166666666667     0.256760000000     0.509890000000     0          
O        O      0.166666666667     0.082160000000     0.548650000000     0          
O        O      0.166666666667     0.000000000000     0.500000000000     0          
O        O      0.166666666667     0.423210000000     0.057490000000     0          
O        O      0.166666666667     0.500000000000     0.000000000000     0          
O        O      0.166666666667     0.326670000000     0.055280000000     0          
Si       Si     0.252606666667     0.278290000000     0.897700000000     0          
Si       Si     0.252740000000     0.475130000000     0.899920000000     0          
Si       Si     0.250413333333     0.374240000000     0.955640000000     0          
Si       Si     0.283223333333     0.320260000000     0.803760000000     0          
Si       Si     0.283663333333     0.429460000000     0.806680000000     0          
Si       Si     0.166666666667     0.233990000000     0.935760000000     0          
Si       Si     0.166666666667     0.024400000000     0.946470000000     0          
Si       Si     0.166666666667     0.481250000000     0.444080000000     0          
Si       Si     0.166666666667     0.269050000000     0.452060000000     0          
Si       Si     0.166666666667     0.133580000000     0.978520000000     0          
Si       Si     0.166666666667     0.375670000000     0.476400000000     0          
O        O      0.208750000000     0.249350000000     0.905850000000     0          
O        O      0.244593333333     0.333130000000     0.914530000000     0          
O        O      0.291383333333     0.253910000000     0.927270000000     0          
O        O      0.263000000000     0.280310000000     0.839740000000     0          
O        O      0.291480000000     0.509890000000     0.915630000000     0          
O        O      0.258396666667     0.425370000000     0.929510000000     0          
O        O      0.208246666667     0.499680000000     0.915260000000     0          
O        O      0.255753333333     0.463930000000     0.841900000000     0          
O        O      0.208506666667     0.376800000000     0.989480000000     0          
O        O      0.291303333333     0.360420000000     0.988320000000     0          
O        O      0.276373333333     0.374380000000     0.823450000000     0          
O        O      0.261973333333     0.315580000000     0.750000000000     0          
O        O      0.000000000000     0.309270000000     0.798330000000     0          
O        O      0.000000000000     0.442870000000     0.812620000000     0          
O        O      0.269923333333     0.435930000000     0.750000000000     0          
O        O      0.166666666667     0.176030000000     0.938210000000     0          
O        O      0.166666666667     0.256760000000     0.990110000000     0          
O        O      0.166666666667     0.082160000000     0.951350000000     0          
O        O      0.166666666667     0.423210000000     0.442510000000     0          
O        O      0.166666666667     0.326670000000     0.444720000000     0          
Si       Si     0.080726666667     0.721710000000     0.397700000000     0          
Si       Si     0.080593333333     0.524870000000     0.399920000000     0          
Si       Si     0.082920000000     0.625760000000     0.455640000000     0          
Si       Si     0.050110000000     0.679740000000     0.303760000000     0          
Si       Si     0.049670000000     0.570540000000     0.306680000000     0          
Si       Si     0.166666666667     0.766010000000     0.435760000000     0          
Si       Si     0.166666666667     0.975600000000     0.446470000000     0          
Si       Si     0.166666666667     0.518750000000     0.944080000000     0          
Si       Si     0.166666666667     0.730950000000     0.952060000000     0          
Si       Si     0.166666666667     0.866420000000     0.478520000000     0          
Si       Si     0.166666666667     0.624330000000     0.976400000000     0          
O        O      0.124583333333     0.750650000000     0.405850000000     0          
O        O      0.088740000000     0.666870000000     0.414530000000     0          
O        O      0.041950000000     0.746090000000     0.427270000000     0          
O        O      0.070333333333     0.719690000000     0.339740000000     0          
O        O      0.041853333333     0.490110000000     0.415630000000     0          
O        O      0.074936666667     0.574630000000     0.429510000000     0          
O        O      0.125086666667     0.500320000000     0.415260000000     0          
O        O      0.077580000000     0.536070000000     0.341900000000     0          
O        O      0.124826666667     0.623200000000     0.489480000000     0          
O        O      0.042030000000     0.639580000000     0.488320000000     0          
O        O      0.056960000000     0.625620000000     0.323450000000     0          
O        O      0.071360000000     0.684420000000     0.250000000000     0          
O        O      0.000000000000     0.690730000000     0.298330000000     0          
O        O      0.000000000000     0.557130000000     0.312620000000     0          
O        O      0.063410000000     0.564070000000     0.250000000000     0          
O        O      0.166666666667     0.823970000000     0.438210000000     0          
O        O      0.166666666667     0.743240000000     0.490110000000     0          
O        O      0.166666666667     0.917840000000     0.451350000000     0          
O        O      0.166666666667     0.576790000000     0.942510000000     0          
O        O      0.166666666667     0.673330000000     0.944720000000     0          
Si       Si     0.080726666667     0.278290000000     0.897700000000     0          
Si       Si     0.080593333333     0.475130000000     0.899920000000     0          
Si       Si     0.082920000000     0.374240000000     0.955640000000     0          
Si       Si     0.050110000000     0.320260000000     0.803760000000     0          
Si       Si     0.049670000000     0.429460000000     0.806680000000     0          
O        O      0.124583333333     0.249350000000     0.905850000000     0          
O        O      0.088740000000     0.333130000000     0.914530000000     0          
O        O      0.041950000000     0.253910000000     0.927270000000     0          
O        O      0.070333333333     0.280310000000     0.839740000000     0          
O        O      0.041853333333     0.509890000000     0.915630000000     0          
O        O      0.074936666667     0.425370000000     0.929510000000     0          
O        O      0.125086666667     0.499680000000     0.915260000000     0          
O        O      0.077580000000     0.463930000000     0.841900000000     0          
O        O      0.124826666667     0.376800000000     0.989480000000     0          
O        O      0.042030000000     0.360420000000     0.988320000000     0          
O        O      0.056960000000     0.374380000000     0.823450000000     0          
Si       Si     0.252606666667     0.721710000000     0.397700000000     0          
Si       Si     0.252740000000     0.524870000000     0.399920000000     0          
Si       Si     0.250413333333     0.625760000000     0.455640000000     0          
Si       Si     0.283223333333     0.679740000000     0.303760000000     0          
Si       Si     0.283663333333     0.570540000000     0.306680000000     0          
O        O      0.208750000000     0.750650000000     0.405850000000     0          
O        O      0.244593333333     0.666870000000     0.414530000000     0          
O        O      0.291383333333     0.746090000000     0.427270000000     0          
O        O      0.263000000000     0.719690000000     0.339740000000     0          
O        O      0.291480000000     0.490110000000     0.415630000000     0          
O        O      0.258396666667     0.574630000000     0.429510000000     0          
O        O      0.208246666667     0.500320000000     0.415260000000     0          
O        O      0.255753333333     0.536070000000     0.341900000000     0          
O        O      0.208506666667     0.623200000000     0.489480000000     0          
O        O      0.291303333333     0.639580000000     0.488320000000     0          
O        O      0.276373333333     0.625620000000     0.323450000000     0          
Si       Si     0.080726666667     0.721710000000     0.102300000000     0          
Si       Si     0.080593333333     0.524870000000     0.100080000000     0          
Si       Si     0.082920000000     0.625760000000     0.044360000000     0          
Si       Si     0.050110000000     0.679740000000     0.196240000000     0          
Si       Si     0.049670000000     0.570540000000     0.193320000000     0          
O        O      0.124583333333     0.750650000000     0.094150000000     0          
O        O      0.088740000000     0.666870000000     0.085470000000     0          
O        O      0.041950000000     0.746090000000     0.072730000000     0          
O        O      0.070333333333     0.719690000000     0.160260000000     0          
O        O      0.041853333333     0.490110000000     0.084370000000     0          
O        O      0.074936666667     0.574630000000     0.070490000000     0          
O        O      0.125086666667     0.500320000000     0.084740000000     0          
O        O      0.077580000000     0.536070000000     0.158100000000     0          
O        O      0.124826666667     0.623200000000     0.010520000000     0          
O        O      0.042030000000     0.639580000000     0.011680000000     0          
O        O      0.056960000000     0.625620000000     0.176550000000     0          
Si       Si     0.252606666667     0.278290000000     0.602300000000     0          
Si       Si     0.252740000000     0.475130000000     0.600080000000     0          
Si       Si     0.250413333333     0.374240000000     0.544360000000     0          
Si       Si     0.283223333333     0.320260000000     0.696240000000     0          
Si       Si     0.283663333333     0.429460000000     0.693320000000     0          
O        O      0.208750000000     0.249350000000     0.594150000000     0          
O        O      0.244593333333     0.333130000000     0.585470000000     0          
O        O      0.291383333333     0.253910000000     0.572730000000     0          
O        O      0.263000000000     0.280310000000     0.660260000000     0          
O        O      0.291480000000     0.509890000000     0.584370000000     0          
O        O      0.258396666667     0.425370000000     0.570490000000     0          
O        O      0.208246666667     0.499680000000     0.584740000000     0          
O        O      0.255753333333     0.463930000000     0.658100000000     0          
O        O      0.208506666667     0.376800000000     0.510520000000     0          
O        O      0.291303333333     0.360420000000     0.511680000000     0          
O        O      0.276373333333     0.374380000000     0.676550000000     0          
Si       Si     0.419273333333     0.221710000000     0.102300000000     0          
Si       Si     0.419406666667     0.024870000000     0.100080000000     0          
Si       Si     0.417080000000     0.125760000000     0.044360000000     0          
Si       Si     0.449890000000     0.179740000000     0.196240000000     0          
Si       Si     0.450330000000     0.070540000000     0.193320000000     0          
Si       Si     0.333333333333     0.266010000000     0.064240000000     0          
Si       Si     0.333333333333     0.475600000000     0.053530000000     0          
Si       Si     0.333333333333     0.018750000000     0.555920000000     0          
Si       Si     0.333333333333     0.230950000000     0.547940000000     0          
Si       Si     0.333333333333     0.366420000000     0.021480000000     0          
Si       Si     0.333333333333     0.124330000000     0.523600000000     0          
O        O      0.375416666667     0.250650000000     0.094150000000     0          
O        O      0.411260000000     0.166870000000     0.085470000000     0          
O        O      0.458050000000     0.246090000000     0.072730000000     0          
O        O      0.429666666667     0.219690000000     0.160260000000     0          
O        O      0.458146666667     0.990110000000     0.084370000000     0          
O        O      0.425063333333     0.074630000000     0.070490000000     0          
O        O      0.374913333333     0.000320000000     0.084740000000     0          
O        O      0.422420000000     0.036070000000     0.158100000000     0          
O        O      0.375173333333     0.123200000000     0.010520000000     0          
O        O      0.457970000000     0.139580000000     0.011680000000     0          
O        O      0.443040000000     0.125620000000     0.176550000000     0          
O        O      0.428640000000     0.184420000000     0.250000000000     0          
O        O      0.500000000000     0.190730000000     0.201670000000     0          
O        O      0.500000000000     0.057130000000     0.187380000000     0          
O        O      0.436590000000     0.064070000000     0.250000000000     0          
O        O      0.333333333333     0.323970000000     0.061790000000     0          
O        O      0.333333333333     0.243240000000     0.009890000000     0          
O        O      0.333333333333     0.417840000000     0.048650000000     0          
O        O      0.333333333333     0.500000000000     0.000000000000     0          
O        O      0.333333333333     0.076790000000     0.557490000000     0          
O        O      0.333333333333     0.000000000000     0.500000000000     0          
O        O      0.333333333333     0.173330000000     0.555280000000     0          
Si       Si     0.580726666667     0.778290000000     0.602300000000     0          
Si       Si     0.580593333333     0.975130000000     0.600080000000     0          
Si       Si     0.582920000000     0.874240000000     0.544360000000     0          
Si       Si     0.550110000000     0.820260000000     0.696240000000     0          
Si       Si     0.549670000000     0.929460000000     0.693320000000     0          
Si       Si     0.333333333333     0.733990000000     0.564240000000     0          
Si       Si     0.333333333333     0.524400000000     0.553530000000     0          
Si       Si     0.333333333333     0.981250000000     0.055920000000     0          
Si       Si     0.333333333333     0.769050000000     0.047940000000     0          
Si       Si     0.333333333333     0.633580000000     0.521480000000     0          
Si       Si     0.333333333333     0.875670000000     0.023600000000     0          
O        O      0.624583333333     0.749350000000     0.594150000000     0          
O        O      0.588740000000     0.833130000000     0.585470000000     0          
O        O      0.541950000000     0.753910000000     0.572730000000     0          
O        O      0.570333333333     0.780310000000     0.660260000000     0          
O        O      0.541853333333     0.009890000000     0.584370000000     0          
O        O      0.574936666667     0.925370000000     0.570490000000     0          
O        O      0.625086666667     0.999680000000     0.584740000000     0          
O        O      0.577580000000     0.963930000000     0.658100000000     0          
O        O      0.624826666667     0.876800000000     0.510520000000     0          
O        O      0.542030000000     0.860420000000     0.511680000000     0          
O        O      0.556960000000     0.874380000000     0.676550000000     0          
O        O      0.571360000000     0.815580000000     0.750000000000     0          
O        O      0.500000000000     0.809270000000     0.701670000000     0          
O        O      0.500000000000     0.942870000000     0.687380000000     0          
O        O      0.563410000000     0.935930000000     0.750000000000     0          
O        O      0.333333333333     0.676030000000     0.561790000000     0          
O        O      0.333333333333     0.756760000000     0.509890000000     0          
O        O      0.333333333333     0.582160000000     0.548650000000     0          
O        O      0.333333333333     0.500000000000     0.500000000000     0          
O        O      0.333333333333     0.923210000000     0.057490000000     0          
O        O      0.333333333333     0.000000000000     0.000000000000     0          
O        O      0.333333333333     0.826670000000     0.055280000000     0          
Si       Si     0.419273333333     0.778290000000     0.897700000000     0          
Si       Si     0.419406666667     0.975130000000     0.899920000000     0          
Si       Si     0.417080000000     0.874240000000     0.955640000000     0          
Si       Si     0.449890000000     0.820260000000     0.803760000000     0          
Si       Si     0.450330000000     0.929460000000     0.806680000000     0          
Si       Si     0.333333333333     0.733990000000     0.935760000000     0          
Si       Si     0.333333333333     0.524400000000     0.946470000000     0          
Si       Si     0.333333333333     0.981250000000     0.444080000000     0          
Si       Si     0.333333333333     0.769050000000     0.452060000000     0          
Si       Si     0.333333333333     0.633580000000     0.978520000000     0          
Si       Si     0.333333333333     0.875670000000     0.476400000000     0          
O        O      0.375416666667     0.749350000000     0.905850000000     0          
O        O      0.411260000000     0.833130000000     0.914530000000     0          
O        O      0.458050000000     0.753910000000     0.927270000000     0          
O        O      0.429666666667     0.780310000000     0.839740000000     0          
O        O      0.458146666667     0.009890000000     0.915630000000     0          
O        O      0.425063333333     0.925370000000     0.929510000000     0          
O        O      0.374913333333     0.999680000000     0.915260000000     0          
O        O      0.422420000000     0.963930000000     0.841900000000     0          
O        O      0.375173333333     0.876800000000     0.989480000000     0          
O        O      0.457970000000     0.860420000000     0.988320000000     0          
O        O      0.443040000000     0.874380000000     0.823450000000     0          
O        O      0.428640000000     0.815580000000     0.750000000000     0          
O        O      0.500000000000     0.809270000000     0.798330000000     0          
O        O      0.500000000000     0.942870000000     0.812620000000     0          
O        O      0.436590000000     0.935930000000     0.750000000000     0          
O        O      0.333333333333     0.676030000000     0.938210000000     0          
O        O      0.333333333333     0.756760000000     0.990110000000     0          
O        O      0.333333333333     0.582160000000     0.951350000000     0          
O        O      0.333333333333     0.923210000000     0.442510000000     0          
O        O      0.333333333333     0.826670000000     0.444720000000     0          
Si       Si     0.580726666667     0.221710000000     0.397700000000     0          
Si       Si     0.580593333333     0.024870000000     0.399920000000     0          
Si       Si     0.582920000000     0.125760000000     0.455640000000     0          
Si       Si     0.550110000000     0.179740000000     0.303760000000     0          
Si       Si     0.549670000000     0.070540000000     0.306680000000     0          
Si       Si     0.333333333333     0.266010000000     0.435760000000     0          
Si       Si     0.333333333333     0.475600000000     0.446470000000     0          
Si       Si     0.333333333333     0.018750000000     0.944080000000     0          
Si       Si     0.333333333333     0.230950000000     0.952060000000     0          
Si       Si     0.333333333333     0.366420000000     0.478520000000     0          
Si       Si     0.333333333333     0.124330000000     0.976400000000     0          
O        O      0.624583333333     0.250650000000     0.405850000000     0          
O        O      0.588740000000     0.166870000000     0.414530000000     0          
O        O      0.541950000000     0.246090000000     0.427270000000     0          
O        O      0.570333333333     0.219690000000     0.339740000000     0          
O        O      0.541853333333     0.990110000000     0.415630000000     0          
O        O      0.574936666667     0.074630000000     0.429510000000     0          
O        O      0.625086666667     0.000320000000     0.415260000000     0          
O        O      0.577580000000     0.036070000000     0.341900000000     0          
O        O      0.624826666667     0.123200000000     0.489480000000     0          
O        O      0.542030000000     0.139580000000     0.488320000000     0          
O        O      0.556960000000     0.125620000000     0.323450000000     0          
O        O      0.571360000000     0.184420000000     0.250000000000     0          
O        O      0.500000000000     0.190730000000     0.298330000000     0          
O        O      0.500000000000     0.057130000000     0.312620000000     0          
O        O      0.563410000000     0.064070000000     0.250000000000     0          
O        O      0.333333333333     0.323970000000     0.438210000000     0          
O        O      0.333333333333     0.243240000000     0.490110000000     0          
O        O      0.333333333333     0.417840000000     0.451350000000     0          
O        O      0.333333333333     0.076790000000     0.942510000000     0          
O        O      0.333333333333     0.173330000000     0.944720000000     0          
Si       Si     0.580726666667     0.778290000000     0.897700000000     0          
Si       Si     0.580593333333     0.975130000000     0.899920000000     0          
Si       Si     0.582920000000     0.874240000000     0.955640000000     0          
Si       Si     0.550110000000     0.820260000000     0.803760000000     0          
Si       Si     0.549670000000     0.929460000000     0.806680000000     0          
O        O      0.624583333333     0.749350000000     0.905850000000     0          
O        O      0.588740000000     0.833130000000     0.914530000000     0          
O        O      0.541950000000     0.753910000000     0.927270000000     0          
O        O      0.570333333333     0.780310000000     0.839740000000     0          
O        O      0.541853333333     0.009890000000     0.915630000000     0          
O        O      0.574936666667     0.925370000000     0.929510000000     0          
O        O      0.625086666667     0.999680000000     0.915260000000     0          
O        O      0.577580000000     0.963930000000     0.841900000000     0          
O        O      0.624826666667     0.876800000000     0.989480000000     0          
O        O      0.542030000000     0.860420000000     0.988320000000     0          
O        O      0.556960000000     0.874380000000     0.823450000000     0          
Si       Si     0.419273333333     0.221710000000     0.397700000000     0          
Si       Si     0.419406666667     0.024870000000     0.399920000000     0          
Si       Si     0.417080000000     0.125760000000     0.455640000000     0          
Si       Si     0.449890000000     0.179740000000     0.303760000000     0          
Si       Si     0.450330000000     0.070540000000     0.306680000000     0          
O        O      0.375416666667     0.250650000000     0.405850000000     0          
O        O      0.411260000000     0.166870000000     0.414530000000     0          
O        O      0.458050000000     0.246090000000     0.427270000000     0          
O        O      0.429666666667     0.219690000000     0.339740000000     0          
O        O      0.458146666667     0.990110000000     0.415630000000     0          
O        O      0.425063333333     0.074630000000     0.429510000000     0          
O        O      0.374913333333     0.000320000000     0.415260000000     0          
O        O      0.422420000000     0.036070000000     0.341900000000     0          
O        O      0.375173333333     0.123200000000     0.489480000000     0          
O        O      0.457970000000     0.139580000000     0.488320000000     0          
O        O      0.443040000000     0.125620000000     0.323450000000     0          
Si       Si     0.580726666667     0.221710000000     0.102300000000     0          
Si       Si     0.580593333333     0.024870000000     0.100080000000     0          
Si       Si     0.582920000000     0.125760000000     0.044360000000     0          
Si       Si     0.550110000000     0.179740000000     0.196240000000     0          
Si       Si     0.549670000000     0.070540000000     0.193320000000     0          
O        O      0.624583333333     0.250650000000     0.094150000000     0          
O        O      0.588740000000     0.166870000000     0.085470000000     0          
O        O      0.541950000000     0.246090000000     0.072730000000     0          
O        O      0.570333333333     0.219690000000     0.160260000000     0          
O        O      0.541853333333     0.990110000000     0.084370000000     0          
O        O      0.574936666667     0.074630000000     0.070490000000     0          
O        O      0.625086666667     0.000320000000     0.084740000000     0          
O        O      0.577580000000     0.036070000000     0.158100000000     0          
O        O      0.624826666667     0.123200000000     0.010520000000     0          
O        O      0.542030000000     0.139580000000     0.011680000000     0          
O        O      0.556960000000     0.125620000000     0.176550000000     0          
Si       Si     0.419273333333     0.778290000000     0.602300000000     0          
Si       Si     0.419406666667     0.975130000000     0.600080000000     0          
Si       Si     0.417080000000     0.874240000000     0.544360000000     0          
Si       Si     0.449890000000     0.820260000000     0.696240000000     0          
Si       Si     0.450330000000     0.929460000000     0.693320000000     0          
O        O      0.375416666667     0.749350000000     0.594150000000     0          
O        O      0.411260000000     0.833130000000     0.585470000000     0          
O        O      0.458050000000     0.753910000000     0.572730000000     0          
O        O      0.429666666667     0.780310000000     0.660260000000     0          
O        O      0.458146666667     0.009890000000     0.584370000000     0          
O        O      0.425063333333     0.925370000000     0.570490000000     0          
O        O      0.374913333333     0.999680000000     0.584740000000     0          
O        O      0.422420000000     0.963930000000     0.658100000000     0          
O        O      0.375173333333     0.876800000000     0.510520000000     0          
O        O      0.457970000000     0.860420000000     0.511680000000     0          
O        O      0.443040000000     0.874380000000     0.676550000000     0          
Si       Si     0.585940000000     0.721710000000     0.102300000000     0          
Si       Si     0.586073333333     0.524870000000     0.100080000000     0          
Si       Si     0.583746666667     0.625760000000     0.044360000000     0          
Si       Si     0.616556666667     0.679740000000     0.196240000000     0          
Si       Si     0.616996666667     0.570540000000     0.193320000000     0          
Si       Si     0.500000000000     0.766010000000     0.064240000000     0          
Si       Si     0.500000000000     0.975600000000     0.053530000000     0          
Si       Si     0.500000000000     0.518750000000     0.555920000000     0          
Si       Si     0.500000000000     0.730950000000     0.547940000000     0          
Si       Si     0.500000000000     0.866420000000     0.021480000000     0          
Si       Si     0.500000000000     0.624330000000     0.523600000000     0          
O        O      0.542083333333     0.750650000000     0.094150000000     0          
O        O      0.577926666667     0.666870000000     0.085470000000     0          
O        O      0.624716666667     0.746090000000     0.072730000000     0          
O        O      0.596333333333     0.719690000000     0.160260000000     0          
O        O      0.624813333333     0.490110000000     0.084370000000     0          
O        O      0.591730000000     0.574630000000     0.070490000000     0          
O        O      0.541580000000     0.500320000000     0.084740000000     0          
O        O      0.589086666667     0.536070000000     0.158100000000     0          
O        O      0.541840000000     0.623200000000     0.010520000000     0          
O        O      0.624636666667     0.639580000000     0.011680000000     0          
O        O      0.609706666667     0.625620000000     0.176550000000     0          
O        O      0.595306666667     0.684420000000     0.250000000000     0          
O        O      0.333333333333     0.690730000000     0.201670000000     0          
O        O      0.333333333333     0.557130000000     0.187380000000     0          
O        O      0.603256666667     0.564070000000     0.250000000000     0          
O        O      0.500000000000     0.823970000000     0.061790000000     0          
O        O      0.500000000000     0.743240000000     0.009890000000     0          
O        O      0.500000000000     0.917840000000     0.048650000000     0          
O        O      0.500000000000     0.000000000000     0.000000000000     0          
O        O      0.500000000000     0.576790000000     0.557490000000     0          
O        O      0.500000000000     0.500000000000     0.500000000000     0          
O        O      0.500000000000     0.673330000000     0.555280000000     0          
Si       Si     0.414060000000     0.278290000000     0.602300000000     0          
Si       Si     0.413926666667     0.475130000000     0.600080000000     0          
Si       Si     0.416253333333     0.374240000000     0.544360000000     0          
Si       Si     0.383443333333     0.320260000000     0.696240000000     0          
Si       Si     0.383003333333     0.429460000000     0.693320000000     0          
Si       Si     0.500000000000     0.233990000000     0.564240000000     0          
Si       Si     0.500000000000     0.024400000000     0.553530000000     0          
Si       Si     0.500000000000     0.481250000000     0.055920000000     0          
Si       Si     0.500000000000     0.269050000000     0.047940000000     0          
Si       Si     0.500000000000     0.133580000000     0.521480000000     0          
Si       Si     0.500000000000     0.375670000000     0.023600000000     0          
O        O      0.457916666667     0.249350000000     0.594150000000     0          
O        O      0.422073333333     0.333130000000     0.585470000000     0          
O        O      0.375283333333     0.253910000000     0.572730000000     0          
O        O      0.403666666667     0.280310000000     0.660260000000     0          
O        O      0.375186666667     0.509890000000     0.584370000000     0          
O        O      0.408270000000     0.425370000000     0.570490000000     0          
O        O      0.458420000000     0.499680000000     0.584740000000     0          
O        O      0.410913333333     0.463930000000     0.658100000000     0          
O        O      0.458160000000     0.376800000000     0.510520000000     0          
O        O      0.375363333333     0.360420000000     0.511680000000     0          
O        O      0.390293333333     0.374380000000     0.676550000000     0          
O        O      0.404693333333     0.315580000000     0.750000000000     0          
O        O      0.333333333333     0.309270000000     0.701670000000     0          
O        O      0.333333333333     0.442870000000     0.687380000000     0          
O        O      0.396743333333     0.435930000000     0.750000000000     0          
O        O      0.500000000000     0.176030000000     0.561790000000     0          
O        O      0.500000000000     0.256760000000     0.509890000000     0          
O        O      0.500000000000     0.082160000000     0.548650000000     0          
O        O      0.500000000000     0.000000000000     0.500000000000     0          
O        O      0.500000000000     0.423210000000     0.057490000000     0          
O        O      0.500000000000     0.500000000000     0.000000000000     0          
O        O      0.500000000000     0.326670000000     0.055280000000     0          
Si       Si     0.585940000000     0.278290000000     0.897700000000     0          
Si       Si     0.586073333333     0.475130000000     0.899920000000     0          
Si       Si     0.583746666667     0.374240000000     0.955640000000     0          
Si       Si     0.616556666667     0.320260000000     0.803760000000     0          
Si       Si     0.616996666667     0.429460000000     0.806680000000     0          
Si       Si     0.500000000000     0.233990000000     0.935760000000     0          
Si       Si     0.500000000000     0.024400000000     0.946470000000     0          
Si       Si     0.500000000000     0.481250000000     0.444080000000     0          
Si       Si     0.500000000000     0.269050000000     0.452060000000     0          
Si       Si     0.500000000000     0.133580000000     0.978520000000     0          
Si       Si     0.500000000000     0.375670000000     0.476400000000     0          
O        O      0.542083333333     0.249350000000     0.905850000000     0          
O        O      0.577926666667     0.333130000000     0.914530000000     0          
O        O      0.624716666667     0.253910000000     0.927270000000     0          
O        O      0.596333333333     0.280310000000     0.839740000000     0          
O        O      0.624813333333     0.509890000000     0.915630000000     0          
O        O      0.591730000000     0.425370000000     0.929510000000     0          
O        O      0.541580000000     0.499680000000     0.915260000000     0          
O        O      0.589086666667     0.463930000000     0.841900000000     0          
O        O      0.541840000000     0.376800000000     0.989480000000     0          
O        O      0.624636666667     0.360420000000     0.988320000000     0          
O        O      0.609706666667     0.374380000000     0.823450000000     0          
O        O      0.595306666667     0.315580000000     0.750000000000     0          
O        O      0.333333333333     0.309270000000     0.798330000000     0          
O        O      0.333333333333     0.442870000000     0.812620000000     0          
O        O      0.603256666667     0.435930000000     0.750000000000     0          
O        O      0.500000000000     0.176030000000     0.938210000000     0          
O        O      0.500000000000     0.256760000000     0.990110000000     0          
O        O      0.500000000000     0.082160000000     0.951350000000     0          
O        O      0.500000000000     0.423210000000     0.442510000000     0          
O        O      0.500000000000     0.326670000000     0.444720000000     0          
Si       Si     0.414060000000     0.721710000000     0.397700000000     0          
Si       Si     0.413926666667     0.524870000000     0.399920000000     0          
Si       Si     0.416253333333     0.625760000000     0.455640000000     0          
Si       Si     0.383443333333     0.679740000000     0.303760000000     0          
Si       Si     0.383003333333     0.570540000000     0.306680000000     0          
Si       Si     0.500000000000     0.766010000000     0.435760000000     0          
Si       Si     0.500000000000     0.975600000000     0.446470000000     0          
Si       Si     0.500000000000     0.518750000000     0.944080000000     0          
Si       Si     0.500000000000     0.730950000000     0.952060000000     0          
Si       Si     0.500000000000     0.866420000000     0.478520000000     0          
Si       Si     0.500000000000     0.624330000000     0.976400000000     0          
O        O      0.457916666667     0.750650000000     0.405850000000     0          
O        O      0.422073333333     0.666870000000     0.414530000000     0          
O        O      0.375283333333     0.746090000000     0.427270000000     0          
O        O      0.403666666667     0.719690000000     0.339740000000     0          
O        O      0.375186666667     0.490110000000     0.415630000000     0          
O        O      0.408270000000     0.574630000000     0.429510000000     0          
O        O      0.458420000000     0.500320000000     0.415260000000     0          
O        O      0.410913333333     0.536070000000     0.341900000000     0          
O        O      0.458160000000     0.623200000000     0.489480000000     0          
O        O      0.375363333333     0.639580000000     0.488320000000     0          
O        O      0.390293333333     0.625620000000     0.323450000000     0          
O        O      0.404693333333     0.684420000000     0.250000000000     0          
O        O      0.333333333333     0.690730000000     0.298330000000     0          
O        O      0.333333333333     0.557130000000     0.312620000000     0          
O        O      0.396743333333     0.564070000000     0.250000000000     0          
O        O      0.500000000000     0.823970000000     0.438210000000     0          
O        O      0.500000000000     0.743240000000     0.490110000000     0          
O        O      0.500000000000     0.917840000000     0.451350000000     0          
O        O      0.500000000000     0.576790000000     0.942510000000     0          
O        O      0.500000000000     0.673330000000     0.944720000000     0          
Si       Si     0.414060000000     0.278290000000     0.897700000000     0          
Si       Si     0.413926666667     0.475130000000     0.899920000000     0          
Si       Si     0.416253333333     0.374240000000     0.955640000000     0          
Si       Si     0.383443333333     0.320260000000     0.803760000000     0          
Si       Si     0.383003333333     0.429460000000     0.806680000000     0          
O        O      0.457916666667     0.249350000000     0.905850000000     0          
O        O      0.422073333333     0.333130000000     0.914530000000     0          
O        O      0.375283333333     0.253910000000     0.927270000000     0          
O        O      0.403666666667     0.280310000000     0.839740000000     0          
O        O      0.375186666667     0.509890000000     0.915630000000     0          
O        O      0.408270000000     0.425370000000     0.929510000000     0          
O        O      0.458420000000     0.499680000000     0.915260000000     0          
O        O      0.410913333333     0.463930000000     0.841900000000     0          
O        O      0.458160000000     0.376800000000     0.989480000000     0          
O        O      0.375363333333     0.360420000000     0.988320000000     0          
O        O      0.390293333333     0.374380000000     0.823450000000     0          
Si       Si     0.585940000000     0.721710000000     0.397700000000     0          
Si       Si     0.586073333333     0.524870000000     0.399920000000     0          
Si       Si     0.583746666667     0.625760000000     0.455640000000     0          
Si       Si     0.616556666667     0.679740000000     0.303760000000     0          
Si       Si     0.616996666667     0.570540000000     0.306680000000     0          
O        O      0.542083333333     0.750650000000     0.405850000000     0          
O        O      0.577926666667     0.666870000000     0.414530000000     0          
O        O      0.624716666667     0.746090000000     0.427270000000     0          
O        O      0.596333333333     0.719690000000     0.339740000000     0          
O        O      0.624813333333     0.490110000000     0.415630000000     0          
O        O      0.591730000000     0.574630000000     0.429510000000     0          
O        O      0.541580000000     0.500320000000     0.415260000000     0          
O        O      0.589086666667     0.536070000000     0.341900000000     0          
O        O      0.541840000000     0.623200000000     0.489480000000     0          
O        O      0.624636666667     0.639580000000     0.488320000000     0          
O        O      0.609706666667     0.625620000000     0.323450000000     0          
Si       Si     0.414060000000     0.721710000000     0.102300000000     0          
Si       Si     0.413926666667     0.524870000000     0.100080000000     0          
Si       Si     0.416253333333     0.625760000000     0.044360000000     0          
Si       Si     0.383443333333     0.679740000000     0.196240000000     0          
Si       Si     0.383003333333     0.570540000000     0.193320000000     0          
O        O      0.457916666667     0.750650000000     0.094150000000     0          
O        O      0.422073333333     0.666870000000     0.085470000000     0          
O        O      0.375283333333     0.746090000000     0.072730000000     0          
O        O      0.403666666667     0.719690000000     0.160260000000     0          
O        O      0.375186666667     0.490110000000     0.084370000000     0          
O        O      0.408270000000     0.574630000000     0.070490000000     0          
O        O      0.458420000000     0.500320000000     0.084740000000     0          
O        O      0.410913333333     0.536070000000     0.158100000000     0          
O        O      0.458160000000     0.623200000000     0.010520000000     0          
O        O      0.375363333333     0.639580000000     0.011680000000     0          
O        O      0.390293333333     0.625620000000     0.176550000000     0          
Si       Si     0.585940000000     0.278290000000     0.602300000000     0          
Si       Si     0.586073333333     0.475130000000     0.600080000000     0          
Si       Si     0.583746666667     0.374240000000     0.544360000000     0          
Si       Si     0.616556666667     0.320260000000     0.696240000000     0          
Si       Si     0.616996666667     0.429460000000     0.693320000000     0          
O        O      0.542083333333     0.249350000000     0.594150000000     0          
O        O      0.577926666667     0.333130000000     0.585470000000     0          
O        O      0.624716666667     0.253910000000     0.572730000000     0          
O        O      0.596333333333     0.280310000000     0.660260000000     0          
O        O      0.624813333333     0.509890000000     0.584370000000     0          
O        O      0.591730000000     0.425370000000     0.570490000000     0          
O        O      0.541580000000     0.499680000000     0.584740000000     0          
O        O      0.589086666667     0.463930000000     0.658100000000     0          
O        O      0.541840000000     0.376800000000     0.510520000000     0          
O        O      0.624636666667     0.360420000000     0.511680000000     0          
O        O      0.609706666667     0.374380000000     0.676550000000     0          
Si       Si     0.752606666667     0.221710000000     0.102300000000     0          
Si       Si     0.752740000000     0.024870000000     0.100080000000     0          
Si       Si     0.750413333333     0.125760000000     0.044360000000     0          
Si       Si     0.783223333333     0.179740000000     0.196240000000     0          
Si       Si     0.783663333333     0.070540000000     0.193320000000     0          
Si       Si     0.666666666667     0.266010000000     0.064240000000     0          
Si       Si     0.666666666667     0.475600000000     0.053530000000     0          
Si       Si     0.666666666667     0.018750000000     0.555920000000     0          
Si       Si     0.666666666667     0.230950000000     0.547940000000     0          
Si       Si     0.666666666667     0.366420000000     0.021480000000     0          
Si       Si     0.666666666667     0.124330000000     0.523600000000     0          
O        O      0.708750000000     0.250650000000     0.094150000000     0          
O        O      0.744593333333     0.166870000000     0.085470000000     0          
O        O      0.791383333333     0.246090000000     0.072730000000     0          
O        O      0.763000000000     0.219690000000     0.160260000000     0          
O        O      0.791480000000     0.990110000000     0.084370000000     0          
O        O      0.758396666667     0.074630000000     0.070490000000     0          
O        O      0.708246666667     0.000320000000     0.084740000000     0          
O        O      0.755753333333     0.036070000000     0.158100000000     0          
O        O      0.708506666667     0.123200000000     0.010520000000     0          
O        O      0.791303333333     0.139580000000     0.011680000000     0          
O        O      0.776373333333     0.125620000000     0.176550000000     0          
O        O      0.761973333333     0.184420000000     0.250000000000     0          
O        O      0.833333333333     0.190730000000     0.201670000000     0          
O        O      0.833333333333     0.057130000000     0.187380000000     0          
O        O      0.769923333333     0.064070000000     0.250000000000     0          
O        O      0.666666666667     0.323970000000     0.061790000000     0          
O        O      0.666666666667     0.243240000000     0.009890000000     0          
O        O      0.666666666667     0.417840000000     0.048650000000     0          
O        O      0.666666666667     0.500000000000     0.000000000000     0          
O        O      0.666666666667     0.076790000000     0.557490000000     0          
O        O      0.666666666667     0.000000000000     0.500000000000     0          
O        O      0.666666666667     0.173330000000     0.555280000000     0          
Si       Si     0.914060000000     0.778290000000     0.602300000000     0          
Si       Si     0.913926666667     0.975130000000     0.600080000000     0          
Si       Si     0.916253333333     0.874240000000     0.544360000000     0          
Si       Si     0.883443333333     0.820260000000     0.696240000000     0          
Si       Si     0.883003333333     0.929460000000     0.693320000000     0          
Si       Si     0.666666666667     0.733990000000     0.564240000000     0          
Si       Si     0.666666666667     0.524400000000     0.553530000000     0          
Si       Si     0.666666666667     0.981250000000     0.055920000000     0          
Si       Si     0.666666666667     0.769050000000     0.047940000000     0          
Si       Si     0.666666666667     0.633580000000     0.521480000000     0          
Si       Si     0.666666666667     0.875670000000     0.023600000000     0          
O        O      0.957916666667     0.749350000000     0.594150000000     0          
O        O      0.922073333333     0.833130000000     0.585470000000     0          
O        O      0.875283333333     0.753910000000     0.572730000000     0          
O        O      0.903666666667     0.780310000000     0.660260000000     0          
O        O      0.875186666667     0.009890000000     0.584370000000     0          
O        O      0.908270000000     0.925370000000     0.570490000000     0          
O        O      0.958420000000     0.999680000000     0.584740000000     0          
O        O      0.910913333333     0.963930000000     0.658100000000     0          
O        O      0.958160000000     0.876800000000     0.510520000000     0          
O        O      0.875363333333     0.860420000000     0.511680000000     0          
O        O      0.890293333333     0.874380000000     0.676550000000     0          
O        O      0.904693333333     0.815580000000     0.750000000000     0          
O        O      0.833333333333     0.809270000000     0.701670000000     0          
O        O      0.833333333333     0.942870000000     0.687380000000     0          
O        O      0.896743333333     0.935930000000     0.750000000000     0          
O        O      0.666666666667     0.676030000000     0.561790000000     0          
O        O      0.666666666667     0.756760000000     0.509890000000     0          
O        O      0.666666666667     0.582160000000     0.548650000000     0          
O        O      0.666666666667     0.500000000000     0.500000000000     0          
O        O      0.666666666667     0.923210000000     0.057490000000     0          
O        O      0.666666666667     0.000000000000     0.000000000000     0          
O        O      0.666666666667     0.826670000000     0.055280000000     0          
Si       Si     0.752606666667     0.778290000000     0.897700000000     0          
Si       Si     0.752740000000     0.975130000000     0.899920000000     0          
Si       Si     0.750413333333     0.874240000000     0.955640000000     0          
Si       Si     0.783223333333     0.820260000000     0.803760000000     0          
Si       Si     0.783663333333     0.929460000000     0.806680000000     0          
Si       Si     0.666666666667     0.733990000000     0.935760000000     0          
Si       Si     0.666666666667     0.524400000000     0.946470000000     0          
Si       Si     0.666666666667     0.981250000000     0.444080000000     0          
Si       Si     0.666666666667     0.769050000000     0.452060000000     0          
Si       Si     0.666666666667     0.633580000000     0.978520000000     0          
Si       Si     0.666666666667     0.875670000000     0.476400000000     0          
O        O      0.708750000000     0.749350000000     0.905850000000     0          
O        O      0.744593333333     0.833130000000     0.914530000000     0          
O        O      0.791383333333     0.753910000000     0.927270000000     0          
O        O      0.763000000000     0.780310000000     0.839740000000     0          
O        O      0.791480000000     0.009890000000     0.915630000000     0          
O        O      0.758396666667     0.925370000000     0.929510000000     0          
O        O      0.708246666667     0.999680000000     0.915260000000     0          
O        O      0.755753333333     0.963930000000     0.841900000000     0          
O        O      0.708506666667     0.876800000000     0.989480000000     0          
O        O      0.791303333333     0.860420000000     0.988320000000     0          
O        O      0.776373333333     0.874380000000     0.823450000000     0          
O        O      0.761973333333     0.815580000000     0.750000000000     0          
O        O      0.833333333333     0.809270000000     0.798330000000     0          
O        O      0.833333333333     0.942870000000     0.812620000000     0          
O        O      0.769923333333     0.935930000000     0.750000000000     0          
O        O      0.666666666667     0.676030000000     0.938210000000     0          
O        O      0.666666666667     0.756760000000     0.990110000000     0          
O        O      0.666666666667     0.582160000000     0.951350000000     0          
O        O      0.666666666667     0.923210000000     0.442510000000     0          
O        O      0.666666666667     0.826670000000     0.444720000000     0          
Si       Si     0.914060000000     0.221710000000     0.397700000000     0          
Si       Si     0.913926666667     0.024870000000     0.399920000000     0          
Si       Si     0.916253333333     0.125760000000     0.455640000000     0          
Si       Si     0.883443333333     0.179740000000     0.303760000000     0          
Si       Si     0.883003333333     0.070540000000     0.306680000000     0          
Si       Si     0.666666666667     0.266010000000     0.435760000000     0          
Si       Si     0.666666666667     0.475600000000     0.446470000000     0          
Si       Si     0.666666666667     0.018750000000     0.944080000000     0          
Si       Si     0.666666666667     0.230950000000     0.952060000000     0          
Si       Si     0.666666666667     0.366420000000     0.478520000000     0          
Si       Si     0.666666666667     0.124330000000     0.976400000000     0          
O        O      0.957916666667     0.250650000000     0.405850000000     0          
O        O      0.922073333333     0.166870000000     0.414530000000     0          
O        O      0.875283333333     0.246090000000     0.427270000000     0          
O        O      0.903666666667     0.219690000000     0.339740000000     0          
O        O      0.875186666667     0.990110000000     0.415630000000     0          
O        O      0.908270000000     0.074630000000     0.429510000000     0          
O        O      0.958420000000     0.000320000000     0.415260000000     0          
O        O      0.910913333333     0.036070000000     0.341900000000     0          
O        O      0.958160000000     0.123200000000     0.489480000000     0          
O        O      0.875363333333     0.139580000000     0.488320000000     0          
O        O      0.890293333333     0.125620000000     0.323450000000     0          
O        O      0.904693333333     0.184420000000     0.250000000000     0          
O        O      0.833333333333     0.190730000000     0.298330000000     0          
O        O      0.833333333333     0.057130000000     0.312620000000     0          
O        O      0.896743333333     0.064070000000     0.250000000000     0          
O        O      0.666666666667     0.323970000000     0.438210000000     0          
O        O      0.666666666667     0.243240000000     0.490110000000     0          
O        O      0.666666666667     0.417840000000     0.451350000000     0          
O        O      0.666666666667     0.076790000000     0.942510000000     0          
O        O      0.666666666667     0.173330000000     0.944720000000     0          
Si       Si     0.914060000000     0.778290000000     0.897700000000     0          
Si       Si     0.913926666667     0.975130000000     0.899920000000     0          
Si       Si     0.916253333333     0.874240000000     0.955640000000     0          
Si       Si     0.883443333333     0.820260000000     0.803760000000     0          
Si       Si     0.883003333333     0.929460000000     0.806680000000     0          
O        O      0.957916666667     0.749350000000     0.905850000000     0          
O        O      0.922073333333     0.833130000000     0.914530000000     0          
O        O      0.875283333333     0.753910000000     0.927270000000     0          
O        O      0.903666666667     0.780310000000     0.839740000000     0          
O        O      0.875186666667     0.009890000000     0.915630000000     0          
O        O      0.908270000000     0.925370000000     0.929510000000     0          
O        O      0.958420000000     0.999680000000     0.915260000000     0          
O        O      0.910913333333     0.963930000000     0.841900000000     0          
O        O      0.958160000000     0.876800000000     0.989480000000     0          
O        O      0.875363333333     0.860420000000     0.988320000000     0          
O        O      0.890293333333     0.874380000000     0.823450000000     0          
Si       Si     0.752606666667     0.221710000000     0.397700000000     0          
Si       Si     0.752740000000     0.024870000000     0.399920000000     0          
Si       Si     0.750413333333     0.125760000000     0.455640000000     0          
Si       Si     0.783223333333     0.179740000000     0.303760000000     0          
Si       Si     0.783663333333     0.070540000000     0.306680000000     0          
O        O      0.708750000000     0.250650000000     0.405850000000     0          
O        O      0.744593333333     0.166870000000     0.414530000000     0          
O        O      0.791383333333     0.246090000000     0.427270000000     0          
O        O      0.763000000000     0.219690000000     0.339740000000     0          
O        O      0.791480000000     0.990110000000     0.415630000000     0          
O        O      0.758396666667     0.074630000000     0.429510000000     0          
O        O      0.708246666667     0.000320000000     0.415260000000     0          
O        O      0.755753333333     0.036070000000     0.341900000000     0          
O        O      0.708506666667     0.123200000000     0.489480000000     0          
O        O      0.791303333333     0.139580000000     0.488320000000     0          
O        O      0.776373333333     0.125620000000     0.323450000000     0          
Si       Si     0.914060000000     0.221710000000     0.102300000000     0          
Si       Si     0.913926666667     0.024870000000     0.100080000000     0          
Si       Si     0.916253333333     0.125760000000     0.044360000000     0          
Si       Si     0.883443333333     0.179740000000     0.196240000000     0          
Si       Si     0.883003333333     0.070540000000     0.193320000000     0          
O        O      0.957916666667     0.250650000000     0.094150000000     0          
O        O      0.922073333333     0.166870000000     0.085470000000     0          
O        O      0.875283333333     0.246090000000     0.072730000000     0          
O        O      0.903666666667     0.219690000000     0.160260000000     0          
O        O      0.875186666667     0.990110000000     0.084370000000     0          
O        O      0.908270000000     0.074630000000     0.070490000000     0          
O        O      0.958420000000     0.000320000000     0.084740000000     0          
O        O      0.910913333333     0.036070000000     0.158100000000     0          
O        O      0.958160000000     0.123200000000     0.010520000000     0          
O        O      0.875363333333     0.139580000000     0.011680000000     0          
O        O      0.890293333333     0.125620000000     0.176550000000     0          
Si       Si     0.752606666667     0.778290000000     0.602300000000     0          
Si       Si     0.752740000000     0.975130000000     0.600080000000     0          
Si       Si     0.750413333333     0.874240000000     0.544360000000     0          
Si       Si     0.783223333333     0.820260000000     0.696240000000     0          
Si       Si     0.783663333333     0.929460000000     0.693320000000     0          
O        O      0.708750000000     0.749350000000     0.594150000000     0          
O        O      0.744593333333     0.833130000000     0.585470000000     0          
O        O      0.791383333333     0.753910000000     0.572730000000     0          
O        O      0.763000000000     0.780310000000     0.660260000000     0          
O        O      0.791480000000     0.009890000000     0.584370000000     0          
O        O      0.758396666667     0.925370000000     0.570490000000     0          
O        O      0.708246666667     0.999680000000     0.584740000000     0          
O        O      0.755753333333     0.963930000000     0.658100000000     0          
O        O      0.708506666667     0.876800000000     0.510520000000     0          
O        O      0.791303333333     0.860420000000     0.511680000000     0          
O        O      0.776373333333     0.874380000000     0.676550000000     0          
Si       Si     0.919273333333     0.721710000000     0.102300000000     0          
Si       Si     0.919406666667     0.524870000000     0.100080000000     0          
Si       Si     0.917080000000     0.625760000000     0.044360000000     0          
Si       Si     0.949890000000     0.679740000000     0.196240000000     0          
Si       Si     0.950330000000     0.570540000000     0.193320000000     0          
Si       Si     0.833333333333     0.766010000000     0.064240000000     0          
Si       Si     0.833333333333     0.975600000000     0.053530000000     0          
Si       Si     0.833333333333     0.518750000000     0.555920000000     0          
Si       Si     0.833333333333     0.730950000000     0.547940000000     0          
Si       Si     0.833333333333     0.866420000000     0.021480000000     0          
Si       Si     0.833333333333     0.624330000000     0.523600000000     0          
O        O      0.875416666667     0.750650000000     0.094150000000     0          
O        O      0.911260000000     0.666870000000     0.085470000000     0          
O        O      0.958050000000     0.746090000000     0.072730000000     0          
O        O      0.929666666667     0.719690000000     0.160260000000     0          
O        O      0.958146666667     0.490110000000     0.084370000000     0          
O        O      0.925063333333     0.574630000000     0.070490000000     0          
O        O      0.874913333333     0.500320000000     0.084740000000     0          
O        O      0.922420000000     0.536070000000     0.158100000000     0          
O        O      0.875173333333     0.623200000000     0.010520000000     0          
O        O      0.957970000000     0.639580000000     0.011680000000     0          
O        O      0.943040000000     0.625620000000     0.176550000000     0          
O        O      0.928640000000     0.684420000000     0.250000000000     0          
O        O      0.666666666667     0.690730000000     0.201670000000     0          
O        O      0.666666666667     0.557130000000     0.187380000000     0          
O        O      0.936590000000     0.564070000000     0.250000000000     0          
O        O      0.833333333333     0.823970000000     0.061790000000     0          
O        O      0.833333333333     0.743240000000     0.009890000000     0          
O        O      0.833333333333     0.917840000000     0.048650000000     0          
O        O      0.833333333333     0.000000000000     0.000000000000     0          
O        O      0.833333333333     0.576790000000     0.557490000000     0          
O        O      0.833333333333     0.500000000000     0.500000000000     0          
O        O      0.833333333333     0.673330000000     0.555280000000     0          
Si       Si     0.747393333333     0.278290000000     0.602300000000     0          
Si       Si     0.747260000000     0.475130000000     0.600080000000     0          
Si       Si     0.749586666667     0.374240000000     0.544360000000     0          
Si       Si     0.716776666667     0.320260000000     0.696240000000     0          
Si       Si     0.716336666667     0.429460000000     0.693320000000     0          
Si       Si     0.833333333333     0.233990000000     0.564240000000     0          
Si       Si     0.833333333333     0.024400000000     0.553530000000     0          
Si       Si     0.833333333333     0.481250000000     0.055920000000     0          
Si       Si     0.833333333333     0.269050000000     0.047940000000     0          
Si       Si     0.833333333333     0.133580000000     0.521480000000     0          
Si       Si     0.833333333333     0.375670000000     0.023600000000     0          
O        O      0.791250000000     0.249350000000     0.594150000000     0          
O        O      0.755406666667     0.333130000000     0.585470000000     0          
O        O      0.708616666667     0.253910000000     0.572730000000     0          
O        O      0.737000000000     0.280310000000     0.660260000000     0          
O        O      0.708520000000     0.509890000000     0.584370000000     0          
O        O      0.741603333333     0.425370000000     0.570490000000     0          
O        O      0.791753333333     0.499680000000     0.584740000000     0          
O        O      0.744246666667     0.463930000000     0.658100000000     0          
O        O      0.791493333333     0.376800000000     0.510520000000     0          
O        O      0.708696666667     0.360420000000     0.511680000000     0          
O        O      0.723626666667     0.374380000000     0.676550000000     0          
O        O      0.738026666667     0.315580000000     0.750000000000     0          
O        O      0.666666666667     0.309270000000     0.701670000000     0          
O        O      0.666666666667     0.442870000000     0.687380000000     0          
O        O      0.730076666667     0.435930000000     0.750000000000     0          
O        O      0.833333333333     0.176030000000     0.561790000000     0          
O        O      0.833333333333     0.256760000000     0.509890000000     0          
O        O      0.833333333333     0.082160000000     0.548650000000     0          
O        O      0.833333333333     0.000000000000     0.500000000000     0          
O        O      0.833333333333     0.423210000000     0.057490000000     0          
O        O      0.833333333333     0.500000000000     0.000000000000     0          
O        O      0.833333333333     0.326670000000     0.055280000000     0          
Si       Si     0.919273333333     0.278290000000     0.897700000000     0          
Si       Si     0.919406666667     0.475130000000     0.899920000000     0          
Si       Si     0.917080000000     0.374240000000     0.955640000000     0          
Si       Si     0.949890000000     0.320260000000     0.803760000000     0          
Si       Si     0.950330000000     0.429460000000     0.806680000000     0          
Si       Si     0.833333333333     0.233990000000     0.935760000000     0          
Si       Si     0.833333333333     0.024400000000     0.946470000000     0          
Si       Si     0.833333333333     0.481250000000     0.444080000000     0          
Si       Si     0.833333333333     0.269050000000     0.452060000000     0          
Si       Si     0.833333333333     0.133580000000     0.978520000000     0          
Si       Si     0.833333333333     0.375670000000     0.476400000000     0          
O        O      0.875416666667     0.249350000000     0.905850000000     0          
O        O      0.911260000000     0.333130000000     0.914530000000     0          
O        O      0.958050000000     0.253910000000     0.927270000000     0          
O        O      0.929666666667     0.280310000000     0.839740000000     0          
O        O      0.958146666667     0.509890000000     0.915630000000     0          
O        O      0.925063333333     0.425370000000     0.929510000000     0          
O        O      0.874913333333     0.499680000000     0.915260000000     0          
O        O      0.922420000000     0.463930000000     0.841900000000     0          
O        O      0.875173333333     0.376800000000     0.989480000000     0          
O        O      0.957970000000     0.360420000000     0.988320000000     0          
O        O      0.943040000000     0.374380000000     0.823450000000     0          
O        O      0.928640000000     0.315580000000     0.750000000000     0          
O        O      0.666666666667     0.309270000000     0.798330000000     0          
O        O      0.666666666667     0.442870000000     0.812620000000     0          
O        O      0.936590000000     0.435930000000     0.750000000000     0          
O        O      0.833333333333     0.176030000000     0.938210000000     0          
O        O      0.833333333333     0.256760000000     0.990110000000     0          
O        O      0.833333333333     0.082160000000     0.951350000000     0          
O        O      0.833333333333     0.423210000000     0.442510000000     0          
O        O      0.833333333333     0.326670000000     0.444720000000     0          
Si       Si     0.747393333333     0.721710000000     0.397700000000     0          
Si       Si     0.747260000000     0.524870000000     0.399920000000     0          
Si       Si     0.749586666667     0.625760000000     0.455640000000     0          
Si       Si     0.716776666667     0.679740000000     0.303760000000     0          
Si       Si     0.716336666667     0.570540000000     0.306680000000     0          
Si       Si     0.833333333333     0.766010000000     0.435760000000     0          
Si       Si     0.833333333333     0.975600000000     0.446470000000     0          
Si       Si     0.833333333333     0.518750000000     0.944080000000     0          
Si       Si     0.833333333333     0.730950000000     0.952060000000     0          
Si       Si     0.833333333333     0.866420000000     0.478520000000     0          
Si       Si     0.833333333333     0.624330000000     0.976400000000     0          
O        O      0.791250000000     0.750650000000     0.405850000000     0          
O        O      0.755406666667     0.666870000000     0.414530000000     0          
O        O      0.708616666667     0.746090000000     0.427270000000     0          
O        O      0.737000000000     0.719690000000     0.339740000000     0          
O        O      0.708520000000     0.490110000000     0.415630000000     0          
O        O      0.741603333333     0.574630000000     0.429510000000     0          
O        O      0.791753333333     0.500320000000     0.415260000000     0          
O        O      0.744246666667     0.536070000000     0.341900000000     0          
O        O      0.791493333333     0.623200000000     0.489480000000     0          
O        O      0.708696666667     0.639580000000     0.488320000000     0          
O        O      0.723626666667     0.625620000000     0.323450000000     0          
O        O      0.738026666667     0.684420000000     0.250000000000     0          
O        O      0.666666666667     0.690730000000     0.298330000000     0          
O        O      0.666666666667     0.557130000000     0.312620000000     0          
O        O      0.730076666667     0.564070000000     0.250000000000     0          
O        O      0.833333333333     0.823970000000     0.438210000000     0          
O        O      0.833333333333     0.743240000000     0.490110000000     0          
O        O      0.833333333333     0.917840000000     0.451350000000     0          
O        O      0.833333333333     0.576790000000     0.942510000000     0          
O        O      0.833333333333     0.673330000000     0.944720000000     0          
Si       Si     0.747393333333     0.278290000000     0.897700000000     0          
Si       Si     0.747260000000     0.475130000000     0.899920000000     0          
Si       Si     0.749586666667     0.374240000000     0.955640000000     0          
Si       Si     0.716776666667     0.320260000000     0.803760000000     0          
Si       Si     0.716336666667     0.429460000000     0.806680000000     0          
O        O      0.791250000000     0.249350000000     0.905850000000     0          
O        O      0.755406666667     0.333130000000     0.914530000000     0          
O        O      0.708616666667     0.253910000000     0.927270000000     0          
O        O      0.737000000000     0.280310000000     0.839740000000     0          
O        O      0.708520000000     0.509890000000     0.915630000000     0          
O        O      0.741603333333     0.425370000000     0.929510000000     0          
O        O      0.791753333333     0.499680000000     0.915260000000     0          
O        O      0.744246666667     0.463930000000     0.841900000000     0          
O        O      0.791493333333     0.376800000000     0.989480000000     0          
O        O      0.708696666667     0.360420000000     0.988320000000     0          
O        O      0.723626666667     0.374380000000     0.823450000000     0          
Si       Si     0.919273333333     0.721710000000     0.397700000000     0          
Si       Si     0.919406666667     0.524870000000     0.399920000000     0          
Si       Si     0.917080000000     0.625760000000     0.455640000000     0          
Si       Si     0.949890000000     0.679740000000     0.303760000000     0          
Si       Si     0.950330000000     0.570540000000     0.306680000000     0          
O        O      0.875416666667     0.750650000000     0.405850000000     0          
O        O      0.911260000000     0.666870000000     0.414530000000     0          
O        O      0.958050000000     0.746090000000     0.427270000000     0          
O        O      0.929666666667     0.719690000000     0.339740000000     0          
O        O      0.958146666667     0.490110000000     0.415630000000     0          
O        O      0.925063333333     0.574630000000     0.429510000000     0          
O        O      0.874913333333     0.500320000000     0.415260000000     0          
O        O      0.922420000000     0.536070000000     0.341900000000     0          
O        O      0.875173333333     0.623200000000     0.489480000000     0          
O        O      0.957970000000     0.639580000000     0.488320000000     0          
O        O      0.943040000000     0.625620000000     0.323450000000     0          
Si       Si     0.747393333333     0.721710000000     0.102300000000     0          
Si       Si     0.747260000000     0.524870000000     0.100080000000     0          
Si       Si     0.749586666667     0.625760000000     0.044360000000     0          
Si       Si     0.716776666667     0.679740000000     0.196240000000     0          
Si       Si     0.716336666667     0.570540000000     0.193320000000     0          
O        O      0.791250000000     0.750650000000     0.094150000000     0          
O        O      0.755406666667     0.666870000000     0.085470000000     0          
O        O      0.708616666667     0.746090000000     0.072730000000     0          
O        O      0.737000000000     0.719690000000     0.160260000000     0          
O        O      0.708520000000     0.490110000000     0.084370000000     0          
O        O      0.741603333333     0.574630000000     0.070490000000     0          
O        O      0.791753333333     0.500320000000     0.084740000000     0          
O        O      0.744246666667     0.536070000000     0.158100000000     0          
O        O      0.791493333333     0.623200000000     0.010520000000     0          
O        O      0.708696666667     0.639580000000     0.011680000000     0          
O        O      0.723626666667     0.625620000000     0.176550000000     0          
Si       Si     0.919273333333     0.278290000000     0.602300000000     0          
Si       Si     0.919406666667     0.475130000000     0.600080000000     0          
Si       Si     0.917080000000     0.374240000000     0.544360000000     0          
Si       Si     0.949890000000     0.320260000000     0.696240000000     0          
Si       Si     0.950330000000     0.429460000000     0.693320000000     0          
O        O      0.875416666667     0.249350000000     0.594150000000     0          
O        O      0.911260000000     0.333130000000     0.585470000000     0          
O        O      0.958050000000     0.253910000000     0.572730000000     0          
O        O      0.929666666667     0.280310000000     0.660260000000     0          
O        O      0.958146666667     0.509890000000     0.584370000000     0          
O        O      0.925063333333     0.425370000000     0.570490000000     0          
O        O      0.874913333333     0.499680000000     0.584740000000     0          
O        O      0.922420000000     0.463930000000     0.658100000000     0          
O        O      0.875173333333     0.376800000000     0.510520000000     0          
O        O      0.957970000000     0.360420000000     0.511680000000     0          
O        O      0.943040000000     0.374380000000     0.676550000000     0          


