data_zeolite

_audit_creation_method RASPA-1.0
_audit_creation_date 2021-6-6
_audit_author_name ''

_cell_length_a    14.02
_cell_length_b    13.466
_cell_length_c    10.202
_cell_angle_alpha 90
_cell_angle_beta  107.239
_cell_angle_gamma 90
_cell_volume      22074.5

_symmetry_cell_setting          monoclinic
_symmetry_space_group_name_Hall 'P 1'
_symmetry_space_group_name_H-M  'P 1'
_symmetry_Int_Tables_number     1

_symmetry_equiv_pos_as_xyz 'x,y,z'

loop_
_atom_site_label
_atom_site_type_symbol
_atom_site_fract_x
_atom_site_fract_y
_atom_site_fract_z
_atom_site_charge
T        Si     0.255650000000     0.120350000000     0.051633333333     0          
T        Si     0.365900000000     0.396800000000     0.067133333333     0          
T        Si     0.162300000000     0.442000000000     0.031700000000     0          
T        Si     0.284800000000     0.190900000000     0.217633333333     0          
T        Si     0.244350000000     0.120350000000     0.281700000000     0          
T        Si     0.134100000000     0.396800000000     0.266200000000     0          
T        Si     0.337700000000     0.442000000000     0.301633333333     0          
T        Si     0.215200000000     0.190900000000     0.115700000000     0          
T        Si     0.244350000000     0.379650000000     0.281700000000     0          
T        Si     0.134100000000     0.103200000000     0.266200000000     0          
T        Si     0.337700000000     0.058000000000     0.301633333333     0          
T        Si     0.215200000000     0.309100000000     0.115700000000     0          
T        Si     0.255650000000     0.379650000000     0.051633333333     0          
T        Si     0.365900000000     0.103200000000     0.067133333333     0          
T        Si     0.162300000000     0.058000000000     0.031700000000     0          
T        Si     0.284800000000     0.309100000000     0.217633333333     0          
T        Si     0.005650000000     0.370350000000     0.051633333333     0          
T        Si     0.115900000000     0.146800000000     0.067133333333     0          
T        Si     0.412300000000     0.192000000000     0.031700000000     0          
T        Si     0.034800000000     0.440900000000     0.217633333333     0          
T        Si     0.494350000000     0.370350000000     0.281700000000     0          
T        Si     0.384100000000     0.146800000000     0.266200000000     0          
T        Si     0.087700000000     0.192000000000     0.301633333333     0          
T        Si     0.465200000000     0.440900000000     0.115700000000     0          
T        Si     0.494350000000     0.129650000000     0.281700000000     0          
T        Si     0.384100000000     0.353200000000     0.266200000000     0          
T        Si     0.087700000000     0.308000000000     0.301633333333     0          
T        Si     0.465200000000     0.059100000000     0.115700000000     0          
T        Si     0.005650000000     0.129650000000     0.051633333333     0          
T        Si     0.115900000000     0.353200000000     0.067133333333     0          
T        Si     0.412300000000     0.308000000000     0.031700000000     0          
T        Si     0.034800000000     0.059100000000     0.217633333333     0          
T        Si     0.255650000000     0.120350000000     0.384966666667     0          
T        Si     0.365900000000     0.396800000000     0.400466666667     0          
T        Si     0.162300000000     0.442000000000     0.365033333333     0          
T        Si     0.284800000000     0.190900000000     0.550966666667     0          
T        Si     0.244350000000     0.120350000000     0.615033333333     0          
T        Si     0.134100000000     0.396800000000     0.599533333333     0          
T        Si     0.337700000000     0.442000000000     0.634966666667     0          
T        Si     0.215200000000     0.190900000000     0.449033333333     0          
T        Si     0.244350000000     0.379650000000     0.615033333333     0          
T        Si     0.134100000000     0.103200000000     0.599533333333     0          
T        Si     0.337700000000     0.058000000000     0.634966666667     0          
T        Si     0.215200000000     0.309100000000     0.449033333333     0          
T        Si     0.255650000000     0.379650000000     0.384966666667     0          
T        Si     0.365900000000     0.103200000000     0.400466666667     0          
T        Si     0.162300000000     0.058000000000     0.365033333333     0          
T        Si     0.284800000000     0.309100000000     0.550966666667     0          
T        Si     0.005650000000     0.370350000000     0.384966666667     0          
T        Si     0.115900000000     0.146800000000     0.400466666667     0          
T        Si     0.412300000000     0.192000000000     0.365033333333     0          
T        Si     0.034800000000     0.440900000000     0.550966666667     0          
T        Si     0.494350000000     0.370350000000     0.615033333333     0          
T        Si     0.384100000000     0.146800000000     0.599533333333     0          
T        Si     0.087700000000     0.192000000000     0.634966666667     0          
T        Si     0.465200000000     0.440900000000     0.449033333333     0          
T        Si     0.494350000000     0.129650000000     0.615033333333     0          
T        Si     0.384100000000     0.353200000000     0.599533333333     0          
T        Si     0.087700000000     0.308000000000     0.634966666667     0          
T        Si     0.465200000000     0.059100000000     0.449033333333     0          
T        Si     0.005650000000     0.129650000000     0.384966666667     0          
T        Si     0.115900000000     0.353200000000     0.400466666667     0          
T        Si     0.412300000000     0.308000000000     0.365033333333     0          
T        Si     0.034800000000     0.059100000000     0.550966666667     0          
T        Si     0.255650000000     0.120350000000     0.718300000000     0          
T        Si     0.365900000000     0.396800000000     0.733800000000     0          
T        Si     0.162300000000     0.442000000000     0.698366666667     0          
T        Si     0.284800000000     0.190900000000     0.884300000000     0          
T        Si     0.244350000000     0.120350000000     0.948366666667     0          
T        Si     0.134100000000     0.396800000000     0.932866666667     0          
T        Si     0.337700000000     0.442000000000     0.968300000000     0          
T        Si     0.215200000000     0.190900000000     0.782366666667     0          
T        Si     0.244350000000     0.379650000000     0.948366666667     0          
T        Si     0.134100000000     0.103200000000     0.932866666667     0          
T        Si     0.337700000000     0.058000000000     0.968300000000     0          
T        Si     0.215200000000     0.309100000000     0.782366666667     0          
T        Si     0.255650000000     0.379650000000     0.718300000000     0          
T        Si     0.365900000000     0.103200000000     0.733800000000     0          
T        Si     0.162300000000     0.058000000000     0.698366666667     0          
T        Si     0.284800000000     0.309100000000     0.884300000000     0          
T        Si     0.005650000000     0.370350000000     0.718300000000     0          
T        Si     0.115900000000     0.146800000000     0.733800000000     0          
T        Si     0.412300000000     0.192000000000     0.698366666667     0          
T        Si     0.034800000000     0.440900000000     0.884300000000     0          
T        Si     0.494350000000     0.370350000000     0.948366666667     0          
T        Si     0.384100000000     0.146800000000     0.932866666667     0          
T        Si     0.087700000000     0.192000000000     0.968300000000     0          
T        Si     0.465200000000     0.440900000000     0.782366666667     0          
T        Si     0.494350000000     0.129650000000     0.948366666667     0          
T        Si     0.384100000000     0.353200000000     0.932866666667     0          
T        Si     0.087700000000     0.308000000000     0.968300000000     0          
T        Si     0.465200000000     0.059100000000     0.782366666667     0          
T        Si     0.005650000000     0.129650000000     0.718300000000     0          
T        Si     0.115900000000     0.353200000000     0.733800000000     0          
T        Si     0.412300000000     0.308000000000     0.698366666667     0          
T        Si     0.034800000000     0.059100000000     0.884300000000     0          
T        Si     0.255650000000     0.620350000000     0.051633333333     0          
T        Si     0.365900000000     0.896800000000     0.067133333333     0          
T        Si     0.162300000000     0.942000000000     0.031700000000     0          
T        Si     0.284800000000     0.690900000000     0.217633333333     0          
T        Si     0.244350000000     0.620350000000     0.281700000000     0          
T        Si     0.134100000000     0.896800000000     0.266200000000     0          
T        Si     0.337700000000     0.942000000000     0.301633333333     0          
T        Si     0.215200000000     0.690900000000     0.115700000000     0          
T        Si     0.244350000000     0.879650000000     0.281700000000     0          
T        Si     0.134100000000     0.603200000000     0.266200000000     0          
T        Si     0.337700000000     0.558000000000     0.301633333333     0          
T        Si     0.215200000000     0.809100000000     0.115700000000     0          
T        Si     0.255650000000     0.879650000000     0.051633333333     0          
T        Si     0.365900000000     0.603200000000     0.067133333333     0          
T        Si     0.162300000000     0.558000000000     0.031700000000     0          
T        Si     0.284800000000     0.809100000000     0.217633333333     0          
T        Si     0.005650000000     0.870350000000     0.051633333333     0          
T        Si     0.115900000000     0.646800000000     0.067133333333     0          
T        Si     0.412300000000     0.692000000000     0.031700000000     0          
T        Si     0.034800000000     0.940900000000     0.217633333333     0          
T        Si     0.494350000000     0.870350000000     0.281700000000     0          
T        Si     0.384100000000     0.646800000000     0.266200000000     0          
T        Si     0.087700000000     0.692000000000     0.301633333333     0          
T        Si     0.465200000000     0.940900000000     0.115700000000     0          
T        Si     0.494350000000     0.629650000000     0.281700000000     0          
T        Si     0.384100000000     0.853200000000     0.266200000000     0          
T        Si     0.087700000000     0.808000000000     0.301633333333     0          
T        Si     0.465200000000     0.559100000000     0.115700000000     0          
T        Si     0.005650000000     0.629650000000     0.051633333333     0          
T        Si     0.115900000000     0.853200000000     0.067133333333     0          
T        Si     0.412300000000     0.808000000000     0.031700000000     0          
T        Si     0.034800000000     0.559100000000     0.217633333333     0          
T        Si     0.255650000000     0.620350000000     0.384966666667     0          
T        Si     0.365900000000     0.896800000000     0.400466666667     0          
T        Si     0.162300000000     0.942000000000     0.365033333333     0          
T        Si     0.284800000000     0.690900000000     0.550966666667     0          
T        Si     0.244350000000     0.620350000000     0.615033333333     0          
T        Si     0.134100000000     0.896800000000     0.599533333333     0          
T        Si     0.337700000000     0.942000000000     0.634966666667     0          
T        Si     0.215200000000     0.690900000000     0.449033333333     0          
T        Si     0.244350000000     0.879650000000     0.615033333333     0          
T        Si     0.134100000000     0.603200000000     0.599533333333     0          
T        Si     0.337700000000     0.558000000000     0.634966666667     0          
T        Si     0.215200000000     0.809100000000     0.449033333333     0          
T        Si     0.255650000000     0.879650000000     0.384966666667     0          
T        Si     0.365900000000     0.603200000000     0.400466666667     0          
T        Si     0.162300000000     0.558000000000     0.365033333333     0          
T        Si     0.284800000000     0.809100000000     0.550966666667     0          
T        Si     0.005650000000     0.870350000000     0.384966666667     0          
T        Si     0.115900000000     0.646800000000     0.400466666667     0          
T        Si     0.412300000000     0.692000000000     0.365033333333     0          
T        Si     0.034800000000     0.940900000000     0.550966666667     0          
T        Si     0.494350000000     0.870350000000     0.615033333333     0          
T        Si     0.384100000000     0.646800000000     0.599533333333     0          
T        Si     0.087700000000     0.692000000000     0.634966666667     0          
T        Si     0.465200000000     0.940900000000     0.449033333333     0          
T        Si     0.494350000000     0.629650000000     0.615033333333     0          
T        Si     0.384100000000     0.853200000000     0.599533333333     0          
T        Si     0.087700000000     0.808000000000     0.634966666667     0          
T        Si     0.465200000000     0.559100000000     0.449033333333     0          
T        Si     0.005650000000     0.629650000000     0.384966666667     0          
T        Si     0.115900000000     0.853200000000     0.400466666667     0          
T        Si     0.412300000000     0.808000000000     0.365033333333     0          
T        Si     0.034800000000     0.559100000000     0.550966666667     0          
T        Si     0.255650000000     0.620350000000     0.718300000000     0          
T        Si     0.365900000000     0.896800000000     0.733800000000     0          
T        Si     0.162300000000     0.942000000000     0.698366666667     0          
T        Si     0.284800000000     0.690900000000     0.884300000000     0          
T        Si     0.244350000000     0.620350000000     0.948366666667     0          
T        Si     0.134100000000     0.896800000000     0.932866666667     0          
T        Si     0.337700000000     0.942000000000     0.968300000000     0          
T        Si     0.215200000000     0.690900000000     0.782366666667     0          
T        Si     0.244350000000     0.879650000000     0.948366666667     0          
T        Si     0.134100000000     0.603200000000     0.932866666667     0          
T        Si     0.337700000000     0.558000000000     0.968300000000     0          
T        Si     0.215200000000     0.809100000000     0.782366666667     0          
T        Si     0.255650000000     0.879650000000     0.718300000000     0          
T        Si     0.365900000000     0.603200000000     0.733800000000     0          
T        Si     0.162300000000     0.558000000000     0.698366666667     0          
T        Si     0.284800000000     0.809100000000     0.884300000000     0          
T        Si     0.005650000000     0.870350000000     0.718300000000     0          
T        Si     0.115900000000     0.646800000000     0.733800000000     0          
T        Si     0.412300000000     0.692000000000     0.698366666667     0          
T        Si     0.034800000000     0.940900000000     0.884300000000     0          
T        Si     0.494350000000     0.870350000000     0.948366666667     0          
T        Si     0.384100000000     0.646800000000     0.932866666667     0          
T        Si     0.087700000000     0.692000000000     0.968300000000     0          
T        Si     0.465200000000     0.940900000000     0.782366666667     0          
T        Si     0.494350000000     0.629650000000     0.948366666667     0          
T        Si     0.384100000000     0.853200000000     0.932866666667     0          
T        Si     0.087700000000     0.808000000000     0.968300000000     0          
T        Si     0.465200000000     0.559100000000     0.782366666667     0          
T        Si     0.005650000000     0.629650000000     0.718300000000     0          
T        Si     0.115900000000     0.853200000000     0.733800000000     0          
T        Si     0.412300000000     0.808000000000     0.698366666667     0          
T        Si     0.034800000000     0.559100000000     0.884300000000     0          
T        Si     0.755650000000     0.120350000000     0.051633333333     0          
T        Si     0.865900000000     0.396800000000     0.067133333333     0          
T        Si     0.662300000000     0.442000000000     0.031700000000     0          
T        Si     0.784800000000     0.190900000000     0.217633333333     0          
T        Si     0.744350000000     0.120350000000     0.281700000000     0          
T        Si     0.634100000000     0.396800000000     0.266200000000     0          
T        Si     0.837700000000     0.442000000000     0.301633333333     0          
T        Si     0.715200000000     0.190900000000     0.115700000000     0          
T        Si     0.744350000000     0.379650000000     0.281700000000     0          
T        Si     0.634100000000     0.103200000000     0.266200000000     0          
T        Si     0.837700000000     0.058000000000     0.301633333333     0          
T        Si     0.715200000000     0.309100000000     0.115700000000     0          
T        Si     0.755650000000     0.379650000000     0.051633333333     0          
T        Si     0.865900000000     0.103200000000     0.067133333333     0          
T        Si     0.662300000000     0.058000000000     0.031700000000     0          
T        Si     0.784800000000     0.309100000000     0.217633333333     0          
T        Si     0.505650000000     0.370350000000     0.051633333333     0          
T        Si     0.615900000000     0.146800000000     0.067133333333     0          
T        Si     0.912300000000     0.192000000000     0.031700000000     0          
T        Si     0.534800000000     0.440900000000     0.217633333333     0          
T        Si     0.994350000000     0.370350000000     0.281700000000     0          
T        Si     0.884100000000     0.146800000000     0.266200000000     0          
T        Si     0.587700000000     0.192000000000     0.301633333333     0          
T        Si     0.965200000000     0.440900000000     0.115700000000     0          
T        Si     0.994350000000     0.129650000000     0.281700000000     0          
T        Si     0.884100000000     0.353200000000     0.266200000000     0          
T        Si     0.587700000000     0.308000000000     0.301633333333     0          
T        Si     0.965200000000     0.059100000000     0.115700000000     0          
T        Si     0.505650000000     0.129650000000     0.051633333333     0          
T        Si     0.615900000000     0.353200000000     0.067133333333     0          
T        Si     0.912300000000     0.308000000000     0.031700000000     0          
T        Si     0.534800000000     0.059100000000     0.217633333333     0          
T        Si     0.755650000000     0.120350000000     0.384966666667     0          
T        Si     0.865900000000     0.396800000000     0.400466666667     0          
T        Si     0.662300000000     0.442000000000     0.365033333333     0          
T        Si     0.784800000000     0.190900000000     0.550966666667     0          
T        Si     0.744350000000     0.120350000000     0.615033333333     0          
T        Si     0.634100000000     0.396800000000     0.599533333333     0          
T        Si     0.837700000000     0.442000000000     0.634966666667     0          
T        Si     0.715200000000     0.190900000000     0.449033333333     0          
T        Si     0.744350000000     0.379650000000     0.615033333333     0          
T        Si     0.634100000000     0.103200000000     0.599533333333     0          
T        Si     0.837700000000     0.058000000000     0.634966666667     0          
T        Si     0.715200000000     0.309100000000     0.449033333333     0          
T        Si     0.755650000000     0.379650000000     0.384966666667     0          
T        Si     0.865900000000     0.103200000000     0.400466666667     0          
T        Si     0.662300000000     0.058000000000     0.365033333333     0          
T        Si     0.784800000000     0.309100000000     0.550966666667     0          
T        Si     0.505650000000     0.370350000000     0.384966666667     0          
T        Si     0.615900000000     0.146800000000     0.400466666667     0          
T        Si     0.912300000000     0.192000000000     0.365033333333     0          
T        Si     0.534800000000     0.440900000000     0.550966666667     0          
T        Si     0.994350000000     0.370350000000     0.615033333333     0          
T        Si     0.884100000000     0.146800000000     0.599533333333     0          
T        Si     0.587700000000     0.192000000000     0.634966666667     0          
T        Si     0.965200000000     0.440900000000     0.449033333333     0          
T        Si     0.994350000000     0.129650000000     0.615033333333     0          
T        Si     0.884100000000     0.353200000000     0.599533333333     0          
T        Si     0.587700000000     0.308000000000     0.634966666667     0          
T        Si     0.965200000000     0.059100000000     0.449033333333     0          
T        Si     0.505650000000     0.129650000000     0.384966666667     0          
T        Si     0.615900000000     0.353200000000     0.400466666667     0          
T        Si     0.912300000000     0.308000000000     0.365033333333     0          
T        Si     0.534800000000     0.059100000000     0.550966666667     0          
T        Si     0.755650000000     0.120350000000     0.718300000000     0          
T        Si     0.865900000000     0.396800000000     0.733800000000     0          
T        Si     0.662300000000     0.442000000000     0.698366666667     0          
T        Si     0.784800000000     0.190900000000     0.884300000000     0          
T        Si     0.744350000000     0.120350000000     0.948366666667     0          
T        Si     0.634100000000     0.396800000000     0.932866666667     0          
T        Si     0.837700000000     0.442000000000     0.968300000000     0          
T        Si     0.715200000000     0.190900000000     0.782366666667     0          
T        Si     0.744350000000     0.379650000000     0.948366666667     0          
T        Si     0.634100000000     0.103200000000     0.932866666667     0          
T        Si     0.837700000000     0.058000000000     0.968300000000     0          
T        Si     0.715200000000     0.309100000000     0.782366666667     0          
T        Si     0.755650000000     0.379650000000     0.718300000000     0          
T        Si     0.865900000000     0.103200000000     0.733800000000     0          
T        Si     0.662300000000     0.058000000000     0.698366666667     0          
T        Si     0.784800000000     0.309100000000     0.884300000000     0          
T        Si     0.505650000000     0.370350000000     0.718300000000     0          
T        Si     0.615900000000     0.146800000000     0.733800000000     0          
T        Si     0.912300000000     0.192000000000     0.698366666667     0          
T        Si     0.534800000000     0.440900000000     0.884300000000     0          
T        Si     0.994350000000     0.370350000000     0.948366666667     0          
T        Si     0.884100000000     0.146800000000     0.932866666667     0          
T        Si     0.587700000000     0.192000000000     0.968300000000     0          
T        Si     0.965200000000     0.440900000000     0.782366666667     0          
T        Si     0.994350000000     0.129650000000     0.948366666667     0          
T        Si     0.884100000000     0.353200000000     0.932866666667     0          
T        Si     0.587700000000     0.308000000000     0.968300000000     0          
T        Si     0.965200000000     0.059100000000     0.782366666667     0          
T        Si     0.505650000000     0.129650000000     0.718300000000     0          
T        Si     0.615900000000     0.353200000000     0.733800000000     0          
T        Si     0.912300000000     0.308000000000     0.698366666667     0          
T        Si     0.534800000000     0.059100000000     0.884300000000     0          
T        Si     0.755650000000     0.620350000000     0.051633333333     0          
T        Si     0.865900000000     0.896800000000     0.067133333333     0          
T        Si     0.662300000000     0.942000000000     0.031700000000     0          
T        Si     0.784800000000     0.690900000000     0.217633333333     0          
T        Si     0.744350000000     0.620350000000     0.281700000000     0          
T        Si     0.634100000000     0.896800000000     0.266200000000     0          
T        Si     0.837700000000     0.942000000000     0.301633333333     0          
T        Si     0.715200000000     0.690900000000     0.115700000000     0          
T        Si     0.744350000000     0.879650000000     0.281700000000     0          
T        Si     0.634100000000     0.603200000000     0.266200000000     0          
T        Si     0.837700000000     0.558000000000     0.301633333333     0          
T        Si     0.715200000000     0.809100000000     0.115700000000     0          
T        Si     0.755650000000     0.879650000000     0.051633333333     0          
T        Si     0.865900000000     0.603200000000     0.067133333333     0          
T        Si     0.662300000000     0.558000000000     0.031700000000     0          
T        Si     0.784800000000     0.809100000000     0.217633333333     0          
T        Si     0.505650000000     0.870350000000     0.051633333333     0          
T        Si     0.615900000000     0.646800000000     0.067133333333     0          
T        Si     0.912300000000     0.692000000000     0.031700000000     0          
T        Si     0.534800000000     0.940900000000     0.217633333333     0          
T        Si     0.994350000000     0.870350000000     0.281700000000     0          
T        Si     0.884100000000     0.646800000000     0.266200000000     0          
T        Si     0.587700000000     0.692000000000     0.301633333333     0          
T        Si     0.965200000000     0.940900000000     0.115700000000     0          
T        Si     0.994350000000     0.629650000000     0.281700000000     0          
T        Si     0.884100000000     0.853200000000     0.266200000000     0          
T        Si     0.587700000000     0.808000000000     0.301633333333     0          
T        Si     0.965200000000     0.559100000000     0.115700000000     0          
T        Si     0.505650000000     0.629650000000     0.051633333333     0          
T        Si     0.615900000000     0.853200000000     0.067133333333     0          
T        Si     0.912300000000     0.808000000000     0.031700000000     0          
T        Si     0.534800000000     0.559100000000     0.217633333333     0          
T        Si     0.755650000000     0.620350000000     0.384966666667     0          
T        Si     0.865900000000     0.896800000000     0.400466666667     0          
T        Si     0.662300000000     0.942000000000     0.365033333333     0          
T        Si     0.784800000000     0.690900000000     0.550966666667     0          
T        Si     0.744350000000     0.620350000000     0.615033333333     0          
T        Si     0.634100000000     0.896800000000     0.599533333333     0          
T        Si     0.837700000000     0.942000000000     0.634966666667     0          
T        Si     0.715200000000     0.690900000000     0.449033333333     0          
T        Si     0.744350000000     0.879650000000     0.615033333333     0          
T        Si     0.634100000000     0.603200000000     0.599533333333     0          
T        Si     0.837700000000     0.558000000000     0.634966666667     0          
T        Si     0.715200000000     0.809100000000     0.449033333333     0          
T        Si     0.755650000000     0.879650000000     0.384966666667     0          
T        Si     0.865900000000     0.603200000000     0.400466666667     0          
T        Si     0.662300000000     0.558000000000     0.365033333333     0          
T        Si     0.784800000000     0.809100000000     0.550966666667     0          
T        Si     0.505650000000     0.870350000000     0.384966666667     0          
T        Si     0.615900000000     0.646800000000     0.400466666667     0          
T        Si     0.912300000000     0.692000000000     0.365033333333     0          
T        Si     0.534800000000     0.940900000000     0.550966666667     0          
T        Si     0.994350000000     0.870350000000     0.615033333333     0          
T        Si     0.884100000000     0.646800000000     0.599533333333     0          
T        Si     0.587700000000     0.692000000000     0.634966666667     0          
T        Si     0.965200000000     0.940900000000     0.449033333333     0          
T        Si     0.994350000000     0.629650000000     0.615033333333     0          
T        Si     0.884100000000     0.853200000000     0.599533333333     0          
T        Si     0.587700000000     0.808000000000     0.634966666667     0          
T        Si     0.965200000000     0.559100000000     0.449033333333     0          
T        Si     0.505650000000     0.629650000000     0.384966666667     0          
T        Si     0.615900000000     0.853200000000     0.400466666667     0          
T        Si     0.912300000000     0.808000000000     0.365033333333     0          
T        Si     0.534800000000     0.559100000000     0.550966666667     0          
T        Si     0.755650000000     0.620350000000     0.718300000000     0          
T        Si     0.865900000000     0.896800000000     0.733800000000     0          
T        Si     0.662300000000     0.942000000000     0.698366666667     0          
T        Si     0.784800000000     0.690900000000     0.884300000000     0          
T        Si     0.744350000000     0.620350000000     0.948366666667     0          
T        Si     0.634100000000     0.896800000000     0.932866666667     0          
T        Si     0.837700000000     0.942000000000     0.968300000000     0          
T        Si     0.715200000000     0.690900000000     0.782366666667     0          
T        Si     0.744350000000     0.879650000000     0.948366666667     0          
T        Si     0.634100000000     0.603200000000     0.932866666667     0          
T        Si     0.837700000000     0.558000000000     0.968300000000     0          
T        Si     0.715200000000     0.809100000000     0.782366666667     0          
T        Si     0.755650000000     0.879650000000     0.718300000000     0          
T        Si     0.865900000000     0.603200000000     0.733800000000     0          
T        Si     0.662300000000     0.558000000000     0.698366666667     0          
T        Si     0.784800000000     0.809100000000     0.884300000000     0          
T        Si     0.505650000000     0.870350000000     0.718300000000     0          
T        Si     0.615900000000     0.646800000000     0.733800000000     0          
T        Si     0.912300000000     0.692000000000     0.698366666667     0          
T        Si     0.534800000000     0.940900000000     0.884300000000     0          
T        Si     0.994350000000     0.870350000000     0.948366666667     0          
T        Si     0.884100000000     0.646800000000     0.932866666667     0          
T        Si     0.587700000000     0.692000000000     0.968300000000     0          
T        Si     0.965200000000     0.940900000000     0.782366666667     0          
T        Si     0.994350000000     0.629650000000     0.948366666667     0          
T        Si     0.884100000000     0.853200000000     0.932866666667     0          
T        Si     0.587700000000     0.808000000000     0.968300000000     0          
T        Si     0.965200000000     0.559100000000     0.782366666667     0          
T        Si     0.505650000000     0.629650000000     0.718300000000     0          
T        Si     0.615900000000     0.853200000000     0.733800000000     0          
T        Si     0.912300000000     0.808000000000     0.698366666667     0          
T        Si     0.534800000000     0.559100000000     0.884300000000     0          
O        O      0.409150000000     0.420950000000     0.108733333333     0          
O        O      0.382200000000     0.341200000000     0.058500000000     0          
O        O      0.312850000000     0.394300000000     0.077500000000     0          
O        O      0.359450000000     0.430250000000     0.022133333333     0          
O        O      0.220600000000     0.427600000000     0.049566666667     0          
O        O      0.155250000000     0.000000000000     0.040833333333     0          
O        O      0.250000000000     0.178700000000     0.166666666667     0          
O        O      0.286250000000     0.250000000000     0.225866666667     0          
O        O      0.262050000000     0.164050000000     0.254100000000     0          
O        O      0.250000000000     0.137950000000     0.000000000000     0          
O        O      0.090850000000     0.420950000000     0.224600000000     0          
O        O      0.117800000000     0.341200000000     0.274833333333     0          
O        O      0.187150000000     0.394300000000     0.255833333333     0          
O        O      0.140550000000     0.430250000000     0.311200000000     0          
O        O      0.279400000000     0.427600000000     0.283766666667     0          
O        O      0.344750000000     0.000000000000     0.292500000000     0          
O        O      0.213750000000     0.250000000000     0.107466666667     0          
O        O      0.237950000000     0.164050000000     0.079233333333     0          
O        O      0.090850000000     0.079050000000     0.224600000000     0          
O        O      0.117800000000     0.158800000000     0.274833333333     0          
O        O      0.187150000000     0.105700000000     0.255833333333     0          
O        O      0.140550000000     0.069750000000     0.311200000000     0          
O        O      0.279400000000     0.072400000000     0.283766666667     0          
O        O      0.250000000000     0.321300000000     0.166666666667     0          
O        O      0.237950000000     0.335950000000     0.079233333333     0          
O        O      0.250000000000     0.362050000000     0.000000000000     0          
O        O      0.409150000000     0.079050000000     0.108733333333     0          
O        O      0.382200000000     0.158800000000     0.058500000000     0          
O        O      0.312850000000     0.105700000000     0.077500000000     0          
O        O      0.359450000000     0.069750000000     0.022133333333     0          
O        O      0.220600000000     0.072400000000     0.049566666667     0          
O        O      0.262050000000     0.335950000000     0.254100000000     0          
O        O      0.159150000000     0.170950000000     0.108733333333     0          
O        O      0.132200000000     0.091200000000     0.058500000000     0          
O        O      0.062850000000     0.144300000000     0.077500000000     0          
O        O      0.109450000000     0.180250000000     0.022133333333     0          
O        O      0.470600000000     0.177600000000     0.049566666667     0          
O        O      0.405250000000     0.250000000000     0.040833333333     0          
O        O      0.000000000000     0.428700000000     0.166666666667     0          
O        O      0.036250000000     0.000000000000     0.225866666667     0          
O        O      0.012050000000     0.414050000000     0.254100000000     0          
O        O      0.000000000000     0.387950000000     0.000000000000     0          
O        O      0.340850000000     0.170950000000     0.224600000000     0          
O        O      0.367800000000     0.091200000000     0.274833333333     0          
O        O      0.437150000000     0.144300000000     0.255833333333     0          
O        O      0.390550000000     0.180250000000     0.311200000000     0          
O        O      0.029400000000     0.177600000000     0.283766666667     0          
O        O      0.094750000000     0.250000000000     0.292500000000     0          
O        O      0.463750000000     0.000000000000     0.107466666667     0          
O        O      0.487950000000     0.414050000000     0.079233333333     0          
O        O      0.340850000000     0.329050000000     0.224600000000     0          
O        O      0.367800000000     0.408800000000     0.274833333333     0          
O        O      0.437150000000     0.355700000000     0.255833333333     0          
O        O      0.390550000000     0.319750000000     0.311200000000     0          
O        O      0.029400000000     0.322400000000     0.283766666667     0          
O        O      0.000000000000     0.071300000000     0.166666666667     0          
O        O      0.487950000000     0.085950000000     0.079233333333     0          
O        O      0.000000000000     0.112050000000     0.000000000000     0          
O        O      0.159150000000     0.329050000000     0.108733333333     0          
O        O      0.132200000000     0.408800000000     0.058500000000     0          
O        O      0.062850000000     0.355700000000     0.077500000000     0          
O        O      0.109450000000     0.319750000000     0.022133333333     0          
O        O      0.470600000000     0.322400000000     0.049566666667     0          
O        O      0.012050000000     0.085950000000     0.254100000000     0          
O        O      0.409150000000     0.420950000000     0.442066666667     0          
O        O      0.382200000000     0.341200000000     0.391833333333     0          
O        O      0.312850000000     0.394300000000     0.410833333333     0          
O        O      0.359450000000     0.430250000000     0.355466666667     0          
O        O      0.220600000000     0.427600000000     0.382900000000     0          
O        O      0.155250000000     0.000000000000     0.374166666667     0          
O        O      0.250000000000     0.178700000000     0.500000000000     0          
O        O      0.286250000000     0.250000000000     0.559200000000     0          
O        O      0.262050000000     0.164050000000     0.587433333333     0          
O        O      0.250000000000     0.137950000000     0.333333333333     0          
O        O      0.090850000000     0.420950000000     0.557933333333     0          
O        O      0.117800000000     0.341200000000     0.608166666667     0          
O        O      0.187150000000     0.394300000000     0.589166666667     0          
O        O      0.140550000000     0.430250000000     0.644533333333     0          
O        O      0.279400000000     0.427600000000     0.617100000000     0          
O        O      0.344750000000     0.000000000000     0.625833333333     0          
O        O      0.213750000000     0.250000000000     0.440800000000     0          
O        O      0.237950000000     0.164050000000     0.412566666667     0          
O        O      0.090850000000     0.079050000000     0.557933333333     0          
O        O      0.117800000000     0.158800000000     0.608166666667     0          
O        O      0.187150000000     0.105700000000     0.589166666667     0          
O        O      0.140550000000     0.069750000000     0.644533333333     0          
O        O      0.279400000000     0.072400000000     0.617100000000     0          
O        O      0.250000000000     0.321300000000     0.500000000000     0          
O        O      0.237950000000     0.335950000000     0.412566666667     0          
O        O      0.250000000000     0.362050000000     0.333333333333     0          
O        O      0.409150000000     0.079050000000     0.442066666667     0          
O        O      0.382200000000     0.158800000000     0.391833333333     0          
O        O      0.312850000000     0.105700000000     0.410833333333     0          
O        O      0.359450000000     0.069750000000     0.355466666667     0          
O        O      0.220600000000     0.072400000000     0.382900000000     0          
O        O      0.262050000000     0.335950000000     0.587433333333     0          
O        O      0.159150000000     0.170950000000     0.442066666667     0          
O        O      0.132200000000     0.091200000000     0.391833333333     0          
O        O      0.062850000000     0.144300000000     0.410833333333     0          
O        O      0.109450000000     0.180250000000     0.355466666667     0          
O        O      0.470600000000     0.177600000000     0.382900000000     0          
O        O      0.405250000000     0.250000000000     0.374166666667     0          
O        O      0.000000000000     0.428700000000     0.500000000000     0          
O        O      0.036250000000     0.000000000000     0.559200000000     0          
O        O      0.012050000000     0.414050000000     0.587433333333     0          
O        O      0.000000000000     0.387950000000     0.333333333333     0          
O        O      0.340850000000     0.170950000000     0.557933333333     0          
O        O      0.367800000000     0.091200000000     0.608166666667     0          
O        O      0.437150000000     0.144300000000     0.589166666667     0          
O        O      0.390550000000     0.180250000000     0.644533333333     0          
O        O      0.029400000000     0.177600000000     0.617100000000     0          
O        O      0.094750000000     0.250000000000     0.625833333333     0          
O        O      0.463750000000     0.000000000000     0.440800000000     0          
O        O      0.487950000000     0.414050000000     0.412566666667     0          
O        O      0.340850000000     0.329050000000     0.557933333333     0          
O        O      0.367800000000     0.408800000000     0.608166666667     0          
O        O      0.437150000000     0.355700000000     0.589166666667     0          
O        O      0.390550000000     0.319750000000     0.644533333333     0          
O        O      0.029400000000     0.322400000000     0.617100000000     0          
O        O      0.000000000000     0.071300000000     0.500000000000     0          
O        O      0.487950000000     0.085950000000     0.412566666667     0          
O        O      0.000000000000     0.112050000000     0.333333333333     0          
O        O      0.159150000000     0.329050000000     0.442066666667     0          
O        O      0.132200000000     0.408800000000     0.391833333333     0          
O        O      0.062850000000     0.355700000000     0.410833333333     0          
O        O      0.109450000000     0.319750000000     0.355466666667     0          
O        O      0.470600000000     0.322400000000     0.382900000000     0          
O        O      0.012050000000     0.085950000000     0.587433333333     0          
O        O      0.409150000000     0.420950000000     0.775400000000     0          
O        O      0.382200000000     0.341200000000     0.725166666667     0          
O        O      0.312850000000     0.394300000000     0.744166666667     0          
O        O      0.359450000000     0.430250000000     0.688800000000     0          
O        O      0.220600000000     0.427600000000     0.716233333333     0          
O        O      0.155250000000     0.000000000000     0.707500000000     0          
O        O      0.250000000000     0.178700000000     0.833333333333     0          
O        O      0.286250000000     0.250000000000     0.892533333333     0          
O        O      0.262050000000     0.164050000000     0.920766666667     0          
O        O      0.250000000000     0.137950000000     0.666666666667     0          
O        O      0.090850000000     0.420950000000     0.891266666667     0          
O        O      0.117800000000     0.341200000000     0.941500000000     0          
O        O      0.187150000000     0.394300000000     0.922500000000     0          
O        O      0.140550000000     0.430250000000     0.977866666667     0          
O        O      0.279400000000     0.427600000000     0.950433333333     0          
O        O      0.344750000000     0.000000000000     0.959166666667     0          
O        O      0.213750000000     0.250000000000     0.774133333333     0          
O        O      0.237950000000     0.164050000000     0.745900000000     0          
O        O      0.090850000000     0.079050000000     0.891266666667     0          
O        O      0.117800000000     0.158800000000     0.941500000000     0          
O        O      0.187150000000     0.105700000000     0.922500000000     0          
O        O      0.140550000000     0.069750000000     0.977866666667     0          
O        O      0.279400000000     0.072400000000     0.950433333333     0          
O        O      0.250000000000     0.321300000000     0.833333333333     0          
O        O      0.237950000000     0.335950000000     0.745900000000     0          
O        O      0.250000000000     0.362050000000     0.666666666667     0          
O        O      0.409150000000     0.079050000000     0.775400000000     0          
O        O      0.382200000000     0.158800000000     0.725166666667     0          
O        O      0.312850000000     0.105700000000     0.744166666667     0          
O        O      0.359450000000     0.069750000000     0.688800000000     0          
O        O      0.220600000000     0.072400000000     0.716233333333     0          
O        O      0.262050000000     0.335950000000     0.920766666667     0          
O        O      0.159150000000     0.170950000000     0.775400000000     0          
O        O      0.132200000000     0.091200000000     0.725166666667     0          
O        O      0.062850000000     0.144300000000     0.744166666667     0          
O        O      0.109450000000     0.180250000000     0.688800000000     0          
O        O      0.470600000000     0.177600000000     0.716233333333     0          
O        O      0.405250000000     0.250000000000     0.707500000000     0          
O        O      0.000000000000     0.428700000000     0.833333333333     0          
O        O      0.036250000000     0.000000000000     0.892533333333     0          
O        O      0.012050000000     0.414050000000     0.920766666667     0          
O        O      0.000000000000     0.387950000000     0.666666666667     0          
O        O      0.340850000000     0.170950000000     0.891266666667     0          
O        O      0.367800000000     0.091200000000     0.941500000000     0          
O        O      0.437150000000     0.144300000000     0.922500000000     0          
O        O      0.390550000000     0.180250000000     0.977866666667     0          
O        O      0.029400000000     0.177600000000     0.950433333333     0          
O        O      0.094750000000     0.250000000000     0.959166666667     0          
O        O      0.463750000000     0.000000000000     0.774133333333     0          
O        O      0.487950000000     0.414050000000     0.745900000000     0          
O        O      0.340850000000     0.329050000000     0.891266666667     0          
O        O      0.367800000000     0.408800000000     0.941500000000     0          
O        O      0.437150000000     0.355700000000     0.922500000000     0          
O        O      0.390550000000     0.319750000000     0.977866666667     0          
O        O      0.029400000000     0.322400000000     0.950433333333     0          
O        O      0.000000000000     0.071300000000     0.833333333333     0          
O        O      0.487950000000     0.085950000000     0.745900000000     0          
O        O      0.000000000000     0.112050000000     0.666666666667     0          
O        O      0.159150000000     0.329050000000     0.775400000000     0          
O        O      0.132200000000     0.408800000000     0.725166666667     0          
O        O      0.062850000000     0.355700000000     0.744166666667     0          
O        O      0.109450000000     0.319750000000     0.688800000000     0          
O        O      0.470600000000     0.322400000000     0.716233333333     0          
O        O      0.012050000000     0.085950000000     0.920766666667     0          
O        O      0.409150000000     0.920950000000     0.108733333333     0          
O        O      0.382200000000     0.841200000000     0.058500000000     0          
O        O      0.312850000000     0.894300000000     0.077500000000     0          
O        O      0.359450000000     0.930250000000     0.022133333333     0          
O        O      0.220600000000     0.927600000000     0.049566666667     0          
O        O      0.155250000000     0.500000000000     0.040833333333     0          
O        O      0.250000000000     0.678700000000     0.166666666667     0          
O        O      0.286250000000     0.750000000000     0.225866666667     0          
O        O      0.262050000000     0.664050000000     0.254100000000     0          
O        O      0.250000000000     0.637950000000     0.000000000000     0          
O        O      0.090850000000     0.920950000000     0.224600000000     0          
O        O      0.117800000000     0.841200000000     0.274833333333     0          
O        O      0.187150000000     0.894300000000     0.255833333333     0          
O        O      0.140550000000     0.930250000000     0.311200000000     0          
O        O      0.279400000000     0.927600000000     0.283766666667     0          
O        O      0.344750000000     0.500000000000     0.292500000000     0          
O        O      0.213750000000     0.750000000000     0.107466666667     0          
O        O      0.237950000000     0.664050000000     0.079233333333     0          
O        O      0.090850000000     0.579050000000     0.224600000000     0          
O        O      0.117800000000     0.658800000000     0.274833333333     0          
O        O      0.187150000000     0.605700000000     0.255833333333     0          
O        O      0.140550000000     0.569750000000     0.311200000000     0          
O        O      0.279400000000     0.572400000000     0.283766666667     0          
O        O      0.250000000000     0.821300000000     0.166666666667     0          
O        O      0.237950000000     0.835950000000     0.079233333333     0          
O        O      0.250000000000     0.862050000000     0.000000000000     0          
O        O      0.409150000000     0.579050000000     0.108733333333     0          
O        O      0.382200000000     0.658800000000     0.058500000000     0          
O        O      0.312850000000     0.605700000000     0.077500000000     0          
O        O      0.359450000000     0.569750000000     0.022133333333     0          
O        O      0.220600000000     0.572400000000     0.049566666667     0          
O        O      0.262050000000     0.835950000000     0.254100000000     0          
O        O      0.159150000000     0.670950000000     0.108733333333     0          
O        O      0.132200000000     0.591200000000     0.058500000000     0          
O        O      0.062850000000     0.644300000000     0.077500000000     0          
O        O      0.109450000000     0.680250000000     0.022133333333     0          
O        O      0.470600000000     0.677600000000     0.049566666667     0          
O        O      0.405250000000     0.750000000000     0.040833333333     0          
O        O      0.000000000000     0.928700000000     0.166666666667     0          
O        O      0.036250000000     0.500000000000     0.225866666667     0          
O        O      0.012050000000     0.914050000000     0.254100000000     0          
O        O      0.000000000000     0.887950000000     0.000000000000     0          
O        O      0.340850000000     0.670950000000     0.224600000000     0          
O        O      0.367800000000     0.591200000000     0.274833333333     0          
O        O      0.437150000000     0.644300000000     0.255833333333     0          
O        O      0.390550000000     0.680250000000     0.311200000000     0          
O        O      0.029400000000     0.677600000000     0.283766666667     0          
O        O      0.094750000000     0.750000000000     0.292500000000     0          
O        O      0.463750000000     0.500000000000     0.107466666667     0          
O        O      0.487950000000     0.914050000000     0.079233333333     0          
O        O      0.340850000000     0.829050000000     0.224600000000     0          
O        O      0.367800000000     0.908800000000     0.274833333333     0          
O        O      0.437150000000     0.855700000000     0.255833333333     0          
O        O      0.390550000000     0.819750000000     0.311200000000     0          
O        O      0.029400000000     0.822400000000     0.283766666667     0          
O        O      0.000000000000     0.571300000000     0.166666666667     0          
O        O      0.487950000000     0.585950000000     0.079233333333     0          
O        O      0.000000000000     0.612050000000     0.000000000000     0          
O        O      0.159150000000     0.829050000000     0.108733333333     0          
O        O      0.132200000000     0.908800000000     0.058500000000     0          
O        O      0.062850000000     0.855700000000     0.077500000000     0          
O        O      0.109450000000     0.819750000000     0.022133333333     0          
O        O      0.470600000000     0.822400000000     0.049566666667     0          
O        O      0.012050000000     0.585950000000     0.254100000000     0          
O        O      0.409150000000     0.920950000000     0.442066666667     0          
O        O      0.382200000000     0.841200000000     0.391833333333     0          
O        O      0.312850000000     0.894300000000     0.410833333333     0          
O        O      0.359450000000     0.930250000000     0.355466666667     0          
O        O      0.220600000000     0.927600000000     0.382900000000     0          
O        O      0.155250000000     0.500000000000     0.374166666667     0          
O        O      0.250000000000     0.678700000000     0.500000000000     0          
O        O      0.286250000000     0.750000000000     0.559200000000     0          
O        O      0.262050000000     0.664050000000     0.587433333333     0          
O        O      0.250000000000     0.637950000000     0.333333333333     0          
O        O      0.090850000000     0.920950000000     0.557933333333     0          
O        O      0.117800000000     0.841200000000     0.608166666667     0          
O        O      0.187150000000     0.894300000000     0.589166666667     0          
O        O      0.140550000000     0.930250000000     0.644533333333     0          
O        O      0.279400000000     0.927600000000     0.617100000000     0          
O        O      0.344750000000     0.500000000000     0.625833333333     0          
O        O      0.213750000000     0.750000000000     0.440800000000     0          
O        O      0.237950000000     0.664050000000     0.412566666667     0          
O        O      0.090850000000     0.579050000000     0.557933333333     0          
O        O      0.117800000000     0.658800000000     0.608166666667     0          
O        O      0.187150000000     0.605700000000     0.589166666667     0          
O        O      0.140550000000     0.569750000000     0.644533333333     0          
O        O      0.279400000000     0.572400000000     0.617100000000     0          
O        O      0.250000000000     0.821300000000     0.500000000000     0          
O        O      0.237950000000     0.835950000000     0.412566666667     0          
O        O      0.250000000000     0.862050000000     0.333333333333     0          
O        O      0.409150000000     0.579050000000     0.442066666667     0          
O        O      0.382200000000     0.658800000000     0.391833333333     0          
O        O      0.312850000000     0.605700000000     0.410833333333     0          
O        O      0.359450000000     0.569750000000     0.355466666667     0          
O        O      0.220600000000     0.572400000000     0.382900000000     0          
O        O      0.262050000000     0.835950000000     0.587433333333     0          
O        O      0.159150000000     0.670950000000     0.442066666667     0          
O        O      0.132200000000     0.591200000000     0.391833333333     0          
O        O      0.062850000000     0.644300000000     0.410833333333     0          
O        O      0.109450000000     0.680250000000     0.355466666667     0          
O        O      0.470600000000     0.677600000000     0.382900000000     0          
O        O      0.405250000000     0.750000000000     0.374166666667     0          
O        O      0.000000000000     0.928700000000     0.500000000000     0          
O        O      0.036250000000     0.500000000000     0.559200000000     0          
O        O      0.012050000000     0.914050000000     0.587433333333     0          
O        O      0.000000000000     0.887950000000     0.333333333333     0          
O        O      0.340850000000     0.670950000000     0.557933333333     0          
O        O      0.367800000000     0.591200000000     0.608166666667     0          
O        O      0.437150000000     0.644300000000     0.589166666667     0          
O        O      0.390550000000     0.680250000000     0.644533333333     0          
O        O      0.029400000000     0.677600000000     0.617100000000     0          
O        O      0.094750000000     0.750000000000     0.625833333333     0          
O        O      0.463750000000     0.500000000000     0.440800000000     0          
O        O      0.487950000000     0.914050000000     0.412566666667     0          
O        O      0.340850000000     0.829050000000     0.557933333333     0          
O        O      0.367800000000     0.908800000000     0.608166666667     0          
O        O      0.437150000000     0.855700000000     0.589166666667     0          
O        O      0.390550000000     0.819750000000     0.644533333333     0          
O        O      0.029400000000     0.822400000000     0.617100000000     0          
O        O      0.000000000000     0.571300000000     0.500000000000     0          
O        O      0.487950000000     0.585950000000     0.412566666667     0          
O        O      0.000000000000     0.612050000000     0.333333333333     0          
O        O      0.159150000000     0.829050000000     0.442066666667     0          
O        O      0.132200000000     0.908800000000     0.391833333333     0          
O        O      0.062850000000     0.855700000000     0.410833333333     0          
O        O      0.109450000000     0.819750000000     0.355466666667     0          
O        O      0.470600000000     0.822400000000     0.382900000000     0          
O        O      0.012050000000     0.585950000000     0.587433333333     0          
O        O      0.409150000000     0.920950000000     0.775400000000     0          
O        O      0.382200000000     0.841200000000     0.725166666667     0          
O        O      0.312850000000     0.894300000000     0.744166666667     0          
O        O      0.359450000000     0.930250000000     0.688800000000     0          
O        O      0.220600000000     0.927600000000     0.716233333333     0          
O        O      0.155250000000     0.500000000000     0.707500000000     0          
O        O      0.250000000000     0.678700000000     0.833333333333     0          
O        O      0.286250000000     0.750000000000     0.892533333333     0          
O        O      0.262050000000     0.664050000000     0.920766666667     0          
O        O      0.250000000000     0.637950000000     0.666666666667     0          
O        O      0.090850000000     0.920950000000     0.891266666667     0          
O        O      0.117800000000     0.841200000000     0.941500000000     0          
O        O      0.187150000000     0.894300000000     0.922500000000     0          
O        O      0.140550000000     0.930250000000     0.977866666667     0          
O        O      0.279400000000     0.927600000000     0.950433333333     0          
O        O      0.344750000000     0.500000000000     0.959166666667     0          
O        O      0.213750000000     0.750000000000     0.774133333333     0          
O        O      0.237950000000     0.664050000000     0.745900000000     0          
O        O      0.090850000000     0.579050000000     0.891266666667     0          
O        O      0.117800000000     0.658800000000     0.941500000000     0          
O        O      0.187150000000     0.605700000000     0.922500000000     0          
O        O      0.140550000000     0.569750000000     0.977866666667     0          
O        O      0.279400000000     0.572400000000     0.950433333333     0          
O        O      0.250000000000     0.821300000000     0.833333333333     0          
O        O      0.237950000000     0.835950000000     0.745900000000     0          
O        O      0.250000000000     0.862050000000     0.666666666667     0          
O        O      0.409150000000     0.579050000000     0.775400000000     0          
O        O      0.382200000000     0.658800000000     0.725166666667     0          
O        O      0.312850000000     0.605700000000     0.744166666667     0          
O        O      0.359450000000     0.569750000000     0.688800000000     0          
O        O      0.220600000000     0.572400000000     0.716233333333     0          
O        O      0.262050000000     0.835950000000     0.920766666667     0          
O        O      0.159150000000     0.670950000000     0.775400000000     0          
O        O      0.132200000000     0.591200000000     0.725166666667     0          
O        O      0.062850000000     0.644300000000     0.744166666667     0          
O        O      0.109450000000     0.680250000000     0.688800000000     0          
O        O      0.470600000000     0.677600000000     0.716233333333     0          
O        O      0.405250000000     0.750000000000     0.707500000000     0          
O        O      0.000000000000     0.928700000000     0.833333333333     0          
O        O      0.036250000000     0.500000000000     0.892533333333     0          
O        O      0.012050000000     0.914050000000     0.920766666667     0          
O        O      0.000000000000     0.887950000000     0.666666666667     0          
O        O      0.340850000000     0.670950000000     0.891266666667     0          
O        O      0.367800000000     0.591200000000     0.941500000000     0          
O        O      0.437150000000     0.644300000000     0.922500000000     0          
O        O      0.390550000000     0.680250000000     0.977866666667     0          
O        O      0.029400000000     0.677600000000     0.950433333333     0          
O        O      0.094750000000     0.750000000000     0.959166666667     0          
O        O      0.463750000000     0.500000000000     0.774133333333     0          
O        O      0.487950000000     0.914050000000     0.745900000000     0          
O        O      0.340850000000     0.829050000000     0.891266666667     0          
O        O      0.367800000000     0.908800000000     0.941500000000     0          
O        O      0.437150000000     0.855700000000     0.922500000000     0          
O        O      0.390550000000     0.819750000000     0.977866666667     0          
O        O      0.029400000000     0.822400000000     0.950433333333     0          
O        O      0.000000000000     0.571300000000     0.833333333333     0          
O        O      0.487950000000     0.585950000000     0.745900000000     0          
O        O      0.000000000000     0.612050000000     0.666666666667     0          
O        O      0.159150000000     0.829050000000     0.775400000000     0          
O        O      0.132200000000     0.908800000000     0.725166666667     0          
O        O      0.062850000000     0.855700000000     0.744166666667     0          
O        O      0.109450000000     0.819750000000     0.688800000000     0          
O        O      0.470600000000     0.822400000000     0.716233333333     0          
O        O      0.012050000000     0.585950000000     0.920766666667     0          
O        O      0.909150000000     0.420950000000     0.108733333333     0          
O        O      0.882200000000     0.341200000000     0.058500000000     0          
O        O      0.812850000000     0.394300000000     0.077500000000     0          
O        O      0.859450000000     0.430250000000     0.022133333333     0          
O        O      0.720600000000     0.427600000000     0.049566666667     0          
O        O      0.655250000000     0.000000000000     0.040833333333     0          
O        O      0.750000000000     0.178700000000     0.166666666667     0          
O        O      0.786250000000     0.250000000000     0.225866666667     0          
O        O      0.762050000000     0.164050000000     0.254100000000     0          
O        O      0.750000000000     0.137950000000     0.000000000000     0          
O        O      0.590850000000     0.420950000000     0.224600000000     0          
O        O      0.617800000000     0.341200000000     0.274833333333     0          
O        O      0.687150000000     0.394300000000     0.255833333333     0          
O        O      0.640550000000     0.430250000000     0.311200000000     0          
O        O      0.779400000000     0.427600000000     0.283766666667     0          
O        O      0.844750000000     0.000000000000     0.292500000000     0          
O        O      0.713750000000     0.250000000000     0.107466666667     0          
O        O      0.737950000000     0.164050000000     0.079233333333     0          
O        O      0.590850000000     0.079050000000     0.224600000000     0          
O        O      0.617800000000     0.158800000000     0.274833333333     0          
O        O      0.687150000000     0.105700000000     0.255833333333     0          
O        O      0.640550000000     0.069750000000     0.311200000000     0          
O        O      0.779400000000     0.072400000000     0.283766666667     0          
O        O      0.750000000000     0.321300000000     0.166666666667     0          
O        O      0.737950000000     0.335950000000     0.079233333333     0          
O        O      0.750000000000     0.362050000000     0.000000000000     0          
O        O      0.909150000000     0.079050000000     0.108733333333     0          
O        O      0.882200000000     0.158800000000     0.058500000000     0          
O        O      0.812850000000     0.105700000000     0.077500000000     0          
O        O      0.859450000000     0.069750000000     0.022133333333     0          
O        O      0.720600000000     0.072400000000     0.049566666667     0          
O        O      0.762050000000     0.335950000000     0.254100000000     0          
O        O      0.659150000000     0.170950000000     0.108733333333     0          
O        O      0.632200000000     0.091200000000     0.058500000000     0          
O        O      0.562850000000     0.144300000000     0.077500000000     0          
O        O      0.609450000000     0.180250000000     0.022133333333     0          
O        O      0.970600000000     0.177600000000     0.049566666667     0          
O        O      0.905250000000     0.250000000000     0.040833333333     0          
O        O      0.500000000000     0.428700000000     0.166666666667     0          
O        O      0.536250000000     0.000000000000     0.225866666667     0          
O        O      0.512050000000     0.414050000000     0.254100000000     0          
O        O      0.500000000000     0.387950000000     0.000000000000     0          
O        O      0.840850000000     0.170950000000     0.224600000000     0          
O        O      0.867800000000     0.091200000000     0.274833333333     0          
O        O      0.937150000000     0.144300000000     0.255833333333     0          
O        O      0.890550000000     0.180250000000     0.311200000000     0          
O        O      0.529400000000     0.177600000000     0.283766666667     0          
O        O      0.594750000000     0.250000000000     0.292500000000     0          
O        O      0.963750000000     0.000000000000     0.107466666667     0          
O        O      0.987950000000     0.414050000000     0.079233333333     0          
O        O      0.840850000000     0.329050000000     0.224600000000     0          
O        O      0.867800000000     0.408800000000     0.274833333333     0          
O        O      0.937150000000     0.355700000000     0.255833333333     0          
O        O      0.890550000000     0.319750000000     0.311200000000     0          
O        O      0.529400000000     0.322400000000     0.283766666667     0          
O        O      0.500000000000     0.071300000000     0.166666666667     0          
O        O      0.987950000000     0.085950000000     0.079233333333     0          
O        O      0.500000000000     0.112050000000     0.000000000000     0          
O        O      0.659150000000     0.329050000000     0.108733333333     0          
O        O      0.632200000000     0.408800000000     0.058500000000     0          
O        O      0.562850000000     0.355700000000     0.077500000000     0          
O        O      0.609450000000     0.319750000000     0.022133333333     0          
O        O      0.970600000000     0.322400000000     0.049566666667     0          
O        O      0.512050000000     0.085950000000     0.254100000000     0          
O        O      0.909150000000     0.420950000000     0.442066666667     0          
O        O      0.882200000000     0.341200000000     0.391833333333     0          
O        O      0.812850000000     0.394300000000     0.410833333333     0          
O        O      0.859450000000     0.430250000000     0.355466666667     0          
O        O      0.720600000000     0.427600000000     0.382900000000     0          
O        O      0.655250000000     0.000000000000     0.374166666667     0          
O        O      0.750000000000     0.178700000000     0.500000000000     0          
O        O      0.786250000000     0.250000000000     0.559200000000     0          
O        O      0.762050000000     0.164050000000     0.587433333333     0          
O        O      0.750000000000     0.137950000000     0.333333333333     0          
O        O      0.590850000000     0.420950000000     0.557933333333     0          
O        O      0.617800000000     0.341200000000     0.608166666667     0          
O        O      0.687150000000     0.394300000000     0.589166666667     0          
O        O      0.640550000000     0.430250000000     0.644533333333     0          
O        O      0.779400000000     0.427600000000     0.617100000000     0          
O        O      0.844750000000     0.000000000000     0.625833333333     0          
O        O      0.713750000000     0.250000000000     0.440800000000     0          
O        O      0.737950000000     0.164050000000     0.412566666667     0          
O        O      0.590850000000     0.079050000000     0.557933333333     0          
O        O      0.617800000000     0.158800000000     0.608166666667     0          
O        O      0.687150000000     0.105700000000     0.589166666667     0          
O        O      0.640550000000     0.069750000000     0.644533333333     0          
O        O      0.779400000000     0.072400000000     0.617100000000     0          
O        O      0.750000000000     0.321300000000     0.500000000000     0          
O        O      0.737950000000     0.335950000000     0.412566666667     0          
O        O      0.750000000000     0.362050000000     0.333333333333     0          
O        O      0.909150000000     0.079050000000     0.442066666667     0          
O        O      0.882200000000     0.158800000000     0.391833333333     0          
O        O      0.812850000000     0.105700000000     0.410833333333     0          
O        O      0.859450000000     0.069750000000     0.355466666667     0          
O        O      0.720600000000     0.072400000000     0.382900000000     0          
O        O      0.762050000000     0.335950000000     0.587433333333     0          
O        O      0.659150000000     0.170950000000     0.442066666667     0          
O        O      0.632200000000     0.091200000000     0.391833333333     0          
O        O      0.562850000000     0.144300000000     0.410833333333     0          
O        O      0.609450000000     0.180250000000     0.355466666667     0          
O        O      0.970600000000     0.177600000000     0.382900000000     0          
O        O      0.905250000000     0.250000000000     0.374166666667     0          
O        O      0.500000000000     0.428700000000     0.500000000000     0          
O        O      0.536250000000     0.000000000000     0.559200000000     0          
O        O      0.512050000000     0.414050000000     0.587433333333     0          
O        O      0.500000000000     0.387950000000     0.333333333333     0          
O        O      0.840850000000     0.170950000000     0.557933333333     0          
O        O      0.867800000000     0.091200000000     0.608166666667     0          
O        O      0.937150000000     0.144300000000     0.589166666667     0          
O        O      0.890550000000     0.180250000000     0.644533333333     0          
O        O      0.529400000000     0.177600000000     0.617100000000     0          
O        O      0.594750000000     0.250000000000     0.625833333333     0          
O        O      0.963750000000     0.000000000000     0.440800000000     0          
O        O      0.987950000000     0.414050000000     0.412566666667     0          
O        O      0.840850000000     0.329050000000     0.557933333333     0          
O        O      0.867800000000     0.408800000000     0.608166666667     0          
O        O      0.937150000000     0.355700000000     0.589166666667     0          
O        O      0.890550000000     0.319750000000     0.644533333333     0          
O        O      0.529400000000     0.322400000000     0.617100000000     0          
O        O      0.500000000000     0.071300000000     0.500000000000     0          
O        O      0.987950000000     0.085950000000     0.412566666667     0          
O        O      0.500000000000     0.112050000000     0.333333333333     0          
O        O      0.659150000000     0.329050000000     0.442066666667     0          
O        O      0.632200000000     0.408800000000     0.391833333333     0          
O        O      0.562850000000     0.355700000000     0.410833333333     0          
O        O      0.609450000000     0.319750000000     0.355466666667     0          
O        O      0.970600000000     0.322400000000     0.382900000000     0          
O        O      0.512050000000     0.085950000000     0.587433333333     0          
O        O      0.909150000000     0.420950000000     0.775400000000     0          
O        O      0.882200000000     0.341200000000     0.725166666667     0          
O        O      0.812850000000     0.394300000000     0.744166666667     0          
O        O      0.859450000000     0.430250000000     0.688800000000     0          
O        O      0.720600000000     0.427600000000     0.716233333333     0          
O        O      0.655250000000     0.000000000000     0.707500000000     0          
O        O      0.750000000000     0.178700000000     0.833333333333     0          
O        O      0.786250000000     0.250000000000     0.892533333333     0          
O        O      0.762050000000     0.164050000000     0.920766666667     0          
O        O      0.750000000000     0.137950000000     0.666666666667     0          
O        O      0.590850000000     0.420950000000     0.891266666667     0          
O        O      0.617800000000     0.341200000000     0.941500000000     0          
O        O      0.687150000000     0.394300000000     0.922500000000     0          
O        O      0.640550000000     0.430250000000     0.977866666667     0          
O        O      0.779400000000     0.427600000000     0.950433333333     0          
O        O      0.844750000000     0.000000000000     0.959166666667     0          
O        O      0.713750000000     0.250000000000     0.774133333333     0          
O        O      0.737950000000     0.164050000000     0.745900000000     0          
O        O      0.590850000000     0.079050000000     0.891266666667     0          
O        O      0.617800000000     0.158800000000     0.941500000000     0          
O        O      0.687150000000     0.105700000000     0.922500000000     0          
O        O      0.640550000000     0.069750000000     0.977866666667     0          
O        O      0.779400000000     0.072400000000     0.950433333333     0          
O        O      0.750000000000     0.321300000000     0.833333333333     0          
O        O      0.737950000000     0.335950000000     0.745900000000     0          
O        O      0.750000000000     0.362050000000     0.666666666667     0          
O        O      0.909150000000     0.079050000000     0.775400000000     0          
O        O      0.882200000000     0.158800000000     0.725166666667     0          
O        O      0.812850000000     0.105700000000     0.744166666667     0          
O        O      0.859450000000     0.069750000000     0.688800000000     0          
O        O      0.720600000000     0.072400000000     0.716233333333     0          
O        O      0.762050000000     0.335950000000     0.920766666667     0          
O        O      0.659150000000     0.170950000000     0.775400000000     0          
O        O      0.632200000000     0.091200000000     0.725166666667     0          
O        O      0.562850000000     0.144300000000     0.744166666667     0          
O        O      0.609450000000     0.180250000000     0.688800000000     0          
O        O      0.970600000000     0.177600000000     0.716233333333     0          
O        O      0.905250000000     0.250000000000     0.707500000000     0          
O        O      0.500000000000     0.428700000000     0.833333333333     0          
O        O      0.536250000000     0.000000000000     0.892533333333     0          
O        O      0.512050000000     0.414050000000     0.920766666667     0          
O        O      0.500000000000     0.387950000000     0.666666666667     0          
O        O      0.840850000000     0.170950000000     0.891266666667     0          
O        O      0.867800000000     0.091200000000     0.941500000000     0          
O        O      0.937150000000     0.144300000000     0.922500000000     0          
O        O      0.890550000000     0.180250000000     0.977866666667     0          
O        O      0.529400000000     0.177600000000     0.950433333333     0          
O        O      0.594750000000     0.250000000000     0.959166666667     0          
O        O      0.963750000000     0.000000000000     0.774133333333     0          
O        O      0.987950000000     0.414050000000     0.745900000000     0          
O        O      0.840850000000     0.329050000000     0.891266666667     0          
O        O      0.867800000000     0.408800000000     0.941500000000     0          
O        O      0.937150000000     0.355700000000     0.922500000000     0          
O        O      0.890550000000     0.319750000000     0.977866666667     0          
O        O      0.529400000000     0.322400000000     0.950433333333     0          
O        O      0.500000000000     0.071300000000     0.833333333333     0          
O        O      0.987950000000     0.085950000000     0.745900000000     0          
O        O      0.500000000000     0.112050000000     0.666666666667     0          
O        O      0.659150000000     0.329050000000     0.775400000000     0          
O        O      0.632200000000     0.408800000000     0.725166666667     0          
O        O      0.562850000000     0.355700000000     0.744166666667     0          
O        O      0.609450000000     0.319750000000     0.688800000000     0          
O        O      0.970600000000     0.322400000000     0.716233333333     0          
O        O      0.512050000000     0.085950000000     0.920766666667     0          
O        O      0.909150000000     0.920950000000     0.108733333333     0          
O        O      0.882200000000     0.841200000000     0.058500000000     0          
O        O      0.812850000000     0.894300000000     0.077500000000     0          
O        O      0.859450000000     0.930250000000     0.022133333333     0          
O        O      0.720600000000     0.927600000000     0.049566666667     0          
O        O      0.655250000000     0.500000000000     0.040833333333     0          
O        O      0.750000000000     0.678700000000     0.166666666667     0          
O        O      0.786250000000     0.750000000000     0.225866666667     0          
O        O      0.762050000000     0.664050000000     0.254100000000     0          
O        O      0.750000000000     0.637950000000     0.000000000000     0          
O        O      0.590850000000     0.920950000000     0.224600000000     0          
O        O      0.617800000000     0.841200000000     0.274833333333     0          
O        O      0.687150000000     0.894300000000     0.255833333333     0          
O        O      0.640550000000     0.930250000000     0.311200000000     0          
O        O      0.779400000000     0.927600000000     0.283766666667     0          
O        O      0.844750000000     0.500000000000     0.292500000000     0          
O        O      0.713750000000     0.750000000000     0.107466666667     0          
O        O      0.737950000000     0.664050000000     0.079233333333     0          
O        O      0.590850000000     0.579050000000     0.224600000000     0          
O        O      0.617800000000     0.658800000000     0.274833333333     0          
O        O      0.687150000000     0.605700000000     0.255833333333     0          
O        O      0.640550000000     0.569750000000     0.311200000000     0          
O        O      0.779400000000     0.572400000000     0.283766666667     0          
O        O      0.750000000000     0.821300000000     0.166666666667     0          
O        O      0.737950000000     0.835950000000     0.079233333333     0          
O        O      0.750000000000     0.862050000000     0.000000000000     0          
O        O      0.909150000000     0.579050000000     0.108733333333     0          
O        O      0.882200000000     0.658800000000     0.058500000000     0          
O        O      0.812850000000     0.605700000000     0.077500000000     0          
O        O      0.859450000000     0.569750000000     0.022133333333     0          
O        O      0.720600000000     0.572400000000     0.049566666667     0          
O        O      0.762050000000     0.835950000000     0.254100000000     0          
O        O      0.659150000000     0.670950000000     0.108733333333     0          
O        O      0.632200000000     0.591200000000     0.058500000000     0          
O        O      0.562850000000     0.644300000000     0.077500000000     0          
O        O      0.609450000000     0.680250000000     0.022133333333     0          
O        O      0.970600000000     0.677600000000     0.049566666667     0          
O        O      0.905250000000     0.750000000000     0.040833333333     0          
O        O      0.500000000000     0.928700000000     0.166666666667     0          
O        O      0.536250000000     0.500000000000     0.225866666667     0          
O        O      0.512050000000     0.914050000000     0.254100000000     0          
O        O      0.500000000000     0.887950000000     0.000000000000     0          
O        O      0.840850000000     0.670950000000     0.224600000000     0          
O        O      0.867800000000     0.591200000000     0.274833333333     0          
O        O      0.937150000000     0.644300000000     0.255833333333     0          
O        O      0.890550000000     0.680250000000     0.311200000000     0          
O        O      0.529400000000     0.677600000000     0.283766666667     0          
O        O      0.594750000000     0.750000000000     0.292500000000     0          
O        O      0.963750000000     0.500000000000     0.107466666667     0          
O        O      0.987950000000     0.914050000000     0.079233333333     0          
O        O      0.840850000000     0.829050000000     0.224600000000     0          
O        O      0.867800000000     0.908800000000     0.274833333333     0          
O        O      0.937150000000     0.855700000000     0.255833333333     0          
O        O      0.890550000000     0.819750000000     0.311200000000     0          
O        O      0.529400000000     0.822400000000     0.283766666667     0          
O        O      0.500000000000     0.571300000000     0.166666666667     0          
O        O      0.987950000000     0.585950000000     0.079233333333     0          
O        O      0.500000000000     0.612050000000     0.000000000000     0          
O        O      0.659150000000     0.829050000000     0.108733333333     0          
O        O      0.632200000000     0.908800000000     0.058500000000     0          
O        O      0.562850000000     0.855700000000     0.077500000000     0          
O        O      0.609450000000     0.819750000000     0.022133333333     0          
O        O      0.970600000000     0.822400000000     0.049566666667     0          
O        O      0.512050000000     0.585950000000     0.254100000000     0          
O        O      0.909150000000     0.920950000000     0.442066666667     0          
O        O      0.882200000000     0.841200000000     0.391833333333     0          
O        O      0.812850000000     0.894300000000     0.410833333333     0          
O        O      0.859450000000     0.930250000000     0.355466666667     0          
O        O      0.720600000000     0.927600000000     0.382900000000     0          
O        O      0.655250000000     0.500000000000     0.374166666667     0          
O        O      0.750000000000     0.678700000000     0.500000000000     0          
O        O      0.786250000000     0.750000000000     0.559200000000     0          
O        O      0.762050000000     0.664050000000     0.587433333333     0          
O        O      0.750000000000     0.637950000000     0.333333333333     0          
O        O      0.590850000000     0.920950000000     0.557933333333     0          
O        O      0.617800000000     0.841200000000     0.608166666667     0          
O        O      0.687150000000     0.894300000000     0.589166666667     0          
O        O      0.640550000000     0.930250000000     0.644533333333     0          
O        O      0.779400000000     0.927600000000     0.617100000000     0          
O        O      0.844750000000     0.500000000000     0.625833333333     0          
O        O      0.713750000000     0.750000000000     0.440800000000     0          
O        O      0.737950000000     0.664050000000     0.412566666667     0          
O        O      0.590850000000     0.579050000000     0.557933333333     0          
O        O      0.617800000000     0.658800000000     0.608166666667     0          
O        O      0.687150000000     0.605700000000     0.589166666667     0          
O        O      0.640550000000     0.569750000000     0.644533333333     0          
O        O      0.779400000000     0.572400000000     0.617100000000     0          
O        O      0.750000000000     0.821300000000     0.500000000000     0          
O        O      0.737950000000     0.835950000000     0.412566666667     0          
O        O      0.750000000000     0.862050000000     0.333333333333     0          
O        O      0.909150000000     0.579050000000     0.442066666667     0          
O        O      0.882200000000     0.658800000000     0.391833333333     0          
O        O      0.812850000000     0.605700000000     0.410833333333     0          
O        O      0.859450000000     0.569750000000     0.355466666667     0          
O        O      0.720600000000     0.572400000000     0.382900000000     0          
O        O      0.762050000000     0.835950000000     0.587433333333     0          
O        O      0.659150000000     0.670950000000     0.442066666667     0          
O        O      0.632200000000     0.591200000000     0.391833333333     0          
O        O      0.562850000000     0.644300000000     0.410833333333     0          
O        O      0.609450000000     0.680250000000     0.355466666667     0          
O        O      0.970600000000     0.677600000000     0.382900000000     0          
O        O      0.905250000000     0.750000000000     0.374166666667     0          
O        O      0.500000000000     0.928700000000     0.500000000000     0          
O        O      0.536250000000     0.500000000000     0.559200000000     0          
O        O      0.512050000000     0.914050000000     0.587433333333     0          
O        O      0.500000000000     0.887950000000     0.333333333333     0          
O        O      0.840850000000     0.670950000000     0.557933333333     0          
O        O      0.867800000000     0.591200000000     0.608166666667     0          
O        O      0.937150000000     0.644300000000     0.589166666667     0          
O        O      0.890550000000     0.680250000000     0.644533333333     0          
O        O      0.529400000000     0.677600000000     0.617100000000     0          
O        O      0.594750000000     0.750000000000     0.625833333333     0          
O        O      0.963750000000     0.500000000000     0.440800000000     0          
O        O      0.987950000000     0.914050000000     0.412566666667     0          
O        O      0.840850000000     0.829050000000     0.557933333333     0          
O        O      0.867800000000     0.908800000000     0.608166666667     0          
O        O      0.937150000000     0.855700000000     0.589166666667     0          
O        O      0.890550000000     0.819750000000     0.644533333333     0          
O        O      0.529400000000     0.822400000000     0.617100000000     0          
O        O      0.500000000000     0.571300000000     0.500000000000     0          
O        O      0.987950000000     0.585950000000     0.412566666667     0          
O        O      0.500000000000     0.612050000000     0.333333333333     0          
O        O      0.659150000000     0.829050000000     0.442066666667     0          
O        O      0.632200000000     0.908800000000     0.391833333333     0          
O        O      0.562850000000     0.855700000000     0.410833333333     0          
O        O      0.609450000000     0.819750000000     0.355466666667     0          
O        O      0.970600000000     0.822400000000     0.382900000000     0          
O        O      0.512050000000     0.585950000000     0.587433333333     0          
O        O      0.909150000000     0.920950000000     0.775400000000     0          
O        O      0.882200000000     0.841200000000     0.725166666667     0          
O        O      0.812850000000     0.894300000000     0.744166666667     0          
O        O      0.859450000000     0.930250000000     0.688800000000     0          
O        O      0.720600000000     0.927600000000     0.716233333333     0          
O        O      0.655250000000     0.500000000000     0.707500000000     0          
O        O      0.750000000000     0.678700000000     0.833333333333     0          
O        O      0.786250000000     0.750000000000     0.892533333333     0          
O        O      0.762050000000     0.664050000000     0.920766666667     0          
O        O      0.750000000000     0.637950000000     0.666666666667     0          
O        O      0.590850000000     0.920950000000     0.891266666667     0          
O        O      0.617800000000     0.841200000000     0.941500000000     0          
O        O      0.687150000000     0.894300000000     0.922500000000     0          
O        O      0.640550000000     0.930250000000     0.977866666667     0          
O        O      0.779400000000     0.927600000000     0.950433333333     0          
O        O      0.844750000000     0.500000000000     0.959166666667     0          
O        O      0.713750000000     0.750000000000     0.774133333333     0          
O        O      0.737950000000     0.664050000000     0.745900000000     0          
O        O      0.590850000000     0.579050000000     0.891266666667     0          
O        O      0.617800000000     0.658800000000     0.941500000000     0          
O        O      0.687150000000     0.605700000000     0.922500000000     0          
O        O      0.640550000000     0.569750000000     0.977866666667     0          
O        O      0.779400000000     0.572400000000     0.950433333333     0          
O        O      0.750000000000     0.821300000000     0.833333333333     0          
O        O      0.737950000000     0.835950000000     0.745900000000     0          
O        O      0.750000000000     0.862050000000     0.666666666667     0          
O        O      0.909150000000     0.579050000000     0.775400000000     0          
O        O      0.882200000000     0.658800000000     0.725166666667     0          
O        O      0.812850000000     0.605700000000     0.744166666667     0          
O        O      0.859450000000     0.569750000000     0.688800000000     0          
O        O      0.720600000000     0.572400000000     0.716233333333     0          
O        O      0.762050000000     0.835950000000     0.920766666667     0          
O        O      0.659150000000     0.670950000000     0.775400000000     0          
O        O      0.632200000000     0.591200000000     0.725166666667     0          
O        O      0.562850000000     0.644300000000     0.744166666667     0          
O        O      0.609450000000     0.680250000000     0.688800000000     0          
O        O      0.970600000000     0.677600000000     0.716233333333     0          
O        O      0.905250000000     0.750000000000     0.707500000000     0          
O        O      0.500000000000     0.928700000000     0.833333333333     0          
O        O      0.536250000000     0.500000000000     0.892533333333     0          
O        O      0.512050000000     0.914050000000     0.920766666667     0          
O        O      0.500000000000     0.887950000000     0.666666666667     0          
O        O      0.840850000000     0.670950000000     0.891266666667     0          
O        O      0.867800000000     0.591200000000     0.941500000000     0          
O        O      0.937150000000     0.644300000000     0.922500000000     0          
O        O      0.890550000000     0.680250000000     0.977866666667     0          
O        O      0.529400000000     0.677600000000     0.950433333333     0          
O        O      0.594750000000     0.750000000000     0.959166666667     0          
O        O      0.963750000000     0.500000000000     0.774133333333     0          
O        O      0.987950000000     0.914050000000     0.745900000000     0          
O        O      0.840850000000     0.829050000000     0.891266666667     0          
O        O      0.867800000000     0.908800000000     0.941500000000     0          
O        O      0.937150000000     0.855700000000     0.922500000000     0          
O        O      0.890550000000     0.819750000000     0.977866666667     0          
O        O      0.529400000000     0.822400000000     0.950433333333     0          
O        O      0.500000000000     0.571300000000     0.833333333333     0          
O        O      0.987950000000     0.585950000000     0.745900000000     0          
O        O      0.500000000000     0.612050000000     0.666666666667     0          
O        O      0.659150000000     0.829050000000     0.775400000000     0          
O        O      0.632200000000     0.908800000000     0.725166666667     0          
O        O      0.562850000000     0.855700000000     0.744166666667     0          
O        O      0.609450000000     0.819750000000     0.688800000000     0          
O        O      0.970600000000     0.822400000000     0.716233333333     0          
O        O      0.512050000000     0.585950000000     0.920766666667     0          


