data_zeolite

_audit_creation_method RASPA-1.0
_audit_creation_date 2021-6-7
_audit_author_name ''

_cell_length_a    37.821
_cell_length_b    37.821
_cell_length_c    31.02
_cell_angle_alpha 90
_cell_angle_beta  90
_cell_angle_gamma 120
_cell_volume      38427.2

_symmetry_cell_setting          hexagonal
_symmetry_space_group_name_Hall 'P 1'
_symmetry_space_group_name_H-M  'P 1'
_symmetry_Int_Tables_number     1

_symmetry_equiv_pos_as_xyz 'x,y,z'

loop_
_atom_site_label
_atom_site_type_symbol
_atom_site_fract_x
_atom_site_fract_y
_atom_site_fract_z
_atom_site_charge
O        O      0.157033333333     0.078500000000     0.083333333333     0          
O        O      0.112400000000     0.010133333333     0.040966666667     0          
O        O      0.177300000000     0.021233333333     0.083333333333     0          
O        O      0.038766666667     0.294566666667     0.010866666667     0          
T        Si     0.139833333333     0.030000000000     0.083333333333     0          
T        Si     0.082733333333     0.000000000000     0.000000000000     0          
O        O      0.078533333333     0.157033333333     0.250000000000     0          
O        O      0.102266666667     0.112400000000     0.207633333333     0          
O        O      0.156066666667     0.177300000000     0.250000000000     0          
O        O      0.077533333333     0.038766666667     0.177533333333     0          
T        Si     0.109833333333     0.139833333333     0.250000000000     0          
T        Si     0.082733333333     0.082733333333     0.166666666667     0          
O        O      0.254833333333     0.078533333333     0.083333333333     0          
O        O      0.323200000000     0.102266666667     0.040966666667     0          
O        O      0.312100000000     0.156066666667     0.083333333333     0          
O        O      0.038766666667     0.077533333333     0.010866666667     0          
T        Si     0.303333333333     0.109833333333     0.083333333333     0          
T        Si     0.000000000000     0.082733333333     0.000000000000     0          
O        O      0.176300000000     0.254833333333     0.250000000000     0          
O        O      0.220933333333     0.323200000000     0.207633333333     0          
O        O      0.156033333333     0.312100000000     0.250000000000     0          
O        O      0.294566666667     0.038766666667     0.177533333333     0          
T        Si     0.193500000000     0.303333333333     0.250000000000     0          
T        Si     0.250600000000     0.000000000000     0.166666666667     0          
O        O      0.254800000000     0.176300000000     0.083333333333     0          
O        O      0.231066666667     0.220933333333     0.040966666667     0          
O        O      0.177266666667     0.156033333333     0.083333333333     0          
O        O      0.255800000000     0.294566666667     0.010866666667     0          
T        Si     0.223500000000     0.193500000000     0.083333333333     0          
T        Si     0.250600000000     0.250600000000     0.000000000000     0          
O        O      0.078500000000     0.254800000000     0.250000000000     0          
O        O      0.010133333333     0.231066666667     0.207633333333     0          
O        O      0.021233333333     0.177266666667     0.250000000000     0          
O        O      0.294566666667     0.255800000000     0.177533333333     0          
T        Si     0.030000000000     0.223500000000     0.250000000000     0          
T        Si     0.000000000000     0.250600000000     0.166666666667     0          
O        O      0.323200000000     0.220933333333     0.125700000000     0          
O        O      0.038766666667     0.294566666667     0.155800000000     0          
T        Si     0.303333333333     0.193500000000     0.083333333333     0          
O        O      0.102266666667     0.323200000000     0.292366666667     0          
O        O      0.077533333333     0.038766666667     0.322466666667     0          
T        Si     0.109833333333     0.303333333333     0.250000000000     0          
O        O      0.112400000000     0.102266666667     0.125700000000     0          
O        O      0.038766666667     0.077533333333     0.155800000000     0          
T        Si     0.139833333333     0.109833333333     0.083333333333     0          
O        O      0.010133333333     0.112400000000     0.292366666667     0          
O        O      0.294566666667     0.038766666667     0.322466666667     0          
T        Si     0.030000000000     0.139833333333     0.250000000000     0          
O        O      0.231066666667     0.010133333333     0.125700000000     0          
O        O      0.255800000000     0.294566666667     0.155800000000     0          
T        Si     0.223500000000     0.030000000000     0.083333333333     0          
O        O      0.220933333333     0.231066666667     0.292366666667     0          
O        O      0.294566666667     0.255800000000     0.322466666667     0          
T        Si     0.193500000000     0.223500000000     0.250000000000     0          
O        O      0.220933333333     0.323200000000     0.292366666667     0          
T        Si     0.250600000000     0.000000000000     0.000000000000     0          
O        O      0.231066666667     0.220933333333     0.125700000000     0          
T        Si     0.250600000000     0.250600000000     0.166666666667     0          
O        O      0.010133333333     0.231066666667     0.292366666667     0          
T        Si     0.000000000000     0.250600000000     0.000000000000     0          
O        O      0.112400000000     0.010133333333     0.125700000000     0          
T        Si     0.082733333333     0.000000000000     0.166666666667     0          
O        O      0.102266666667     0.112400000000     0.292366666667     0          
T        Si     0.082733333333     0.082733333333     0.000000000000     0          
O        O      0.323200000000     0.102266666667     0.125700000000     0          
T        Si     0.000000000000     0.082733333333     0.166666666667     0          
O        O      0.010133333333     0.112400000000     0.207633333333     0          
O        O      0.231066666667     0.010133333333     0.040966666667     0          
O        O      0.220933333333     0.231066666667     0.207633333333     0          
O        O      0.323200000000     0.220933333333     0.040966666667     0          
O        O      0.102266666667     0.323200000000     0.207633333333     0          
O        O      0.112400000000     0.102266666667     0.040966666667     0          
O        O      0.157033333333     0.078500000000     0.416666666667     0          
O        O      0.112400000000     0.010133333333     0.374300000000     0          
O        O      0.177300000000     0.021233333333     0.416666666667     0          
O        O      0.038766666667     0.294566666667     0.344200000000     0          
T        Si     0.139833333333     0.030000000000     0.416666666667     0          
T        Si     0.082733333333     0.000000000000     0.333333333333     0          
O        O      0.078533333333     0.157033333333     0.583333333333     0          
O        O      0.102266666667     0.112400000000     0.540966666667     0          
O        O      0.156066666667     0.177300000000     0.583333333333     0          
O        O      0.077533333333     0.038766666667     0.510866666667     0          
T        Si     0.109833333333     0.139833333333     0.583333333333     0          
T        Si     0.082733333333     0.082733333333     0.500000000000     0          
O        O      0.254833333333     0.078533333333     0.416666666667     0          
O        O      0.323200000000     0.102266666667     0.374300000000     0          
O        O      0.312100000000     0.156066666667     0.416666666667     0          
O        O      0.038766666667     0.077533333333     0.344200000000     0          
T        Si     0.303333333333     0.109833333333     0.416666666667     0          
T        Si     0.000000000000     0.082733333333     0.333333333333     0          
O        O      0.176300000000     0.254833333333     0.583333333333     0          
O        O      0.220933333333     0.323200000000     0.540966666667     0          
O        O      0.156033333333     0.312100000000     0.583333333333     0          
O        O      0.294566666667     0.038766666667     0.510866666667     0          
T        Si     0.193500000000     0.303333333333     0.583333333333     0          
T        Si     0.250600000000     0.000000000000     0.500000000000     0          
O        O      0.254800000000     0.176300000000     0.416666666667     0          
O        O      0.231066666667     0.220933333333     0.374300000000     0          
O        O      0.177266666667     0.156033333333     0.416666666667     0          
O        O      0.255800000000     0.294566666667     0.344200000000     0          
T        Si     0.223500000000     0.193500000000     0.416666666667     0          
T        Si     0.250600000000     0.250600000000     0.333333333333     0          
O        O      0.078500000000     0.254800000000     0.583333333333     0          
O        O      0.010133333333     0.231066666667     0.540966666667     0          
O        O      0.021233333333     0.177266666667     0.583333333333     0          
O        O      0.294566666667     0.255800000000     0.510866666667     0          
T        Si     0.030000000000     0.223500000000     0.583333333333     0          
T        Si     0.000000000000     0.250600000000     0.500000000000     0          
O        O      0.323200000000     0.220933333333     0.459033333333     0          
O        O      0.038766666667     0.294566666667     0.489133333333     0          
T        Si     0.303333333333     0.193500000000     0.416666666667     0          
O        O      0.102266666667     0.323200000000     0.625700000000     0          
O        O      0.077533333333     0.038766666667     0.655800000000     0          
T        Si     0.109833333333     0.303333333333     0.583333333333     0          
O        O      0.112400000000     0.102266666667     0.459033333333     0          
O        O      0.038766666667     0.077533333333     0.489133333333     0          
T        Si     0.139833333333     0.109833333333     0.416666666667     0          
O        O      0.010133333333     0.112400000000     0.625700000000     0          
O        O      0.294566666667     0.038766666667     0.655800000000     0          
T        Si     0.030000000000     0.139833333333     0.583333333333     0          
O        O      0.231066666667     0.010133333333     0.459033333333     0          
O        O      0.255800000000     0.294566666667     0.489133333333     0          
T        Si     0.223500000000     0.030000000000     0.416666666667     0          
O        O      0.220933333333     0.231066666667     0.625700000000     0          
O        O      0.294566666667     0.255800000000     0.655800000000     0          
T        Si     0.193500000000     0.223500000000     0.583333333333     0          
O        O      0.220933333333     0.323200000000     0.625700000000     0          
T        Si     0.250600000000     0.000000000000     0.333333333333     0          
O        O      0.231066666667     0.220933333333     0.459033333333     0          
T        Si     0.250600000000     0.250600000000     0.500000000000     0          
O        O      0.010133333333     0.231066666667     0.625700000000     0          
T        Si     0.000000000000     0.250600000000     0.333333333333     0          
O        O      0.112400000000     0.010133333333     0.459033333333     0          
T        Si     0.082733333333     0.000000000000     0.500000000000     0          
O        O      0.102266666667     0.112400000000     0.625700000000     0          
T        Si     0.082733333333     0.082733333333     0.333333333333     0          
O        O      0.323200000000     0.102266666667     0.459033333333     0          
T        Si     0.000000000000     0.082733333333     0.500000000000     0          
O        O      0.010133333333     0.112400000000     0.540966666667     0          
O        O      0.231066666667     0.010133333333     0.374300000000     0          
O        O      0.220933333333     0.231066666667     0.540966666667     0          
O        O      0.323200000000     0.220933333333     0.374300000000     0          
O        O      0.102266666667     0.323200000000     0.540966666667     0          
O        O      0.112400000000     0.102266666667     0.374300000000     0          
O        O      0.157033333333     0.078500000000     0.750000000000     0          
O        O      0.112400000000     0.010133333333     0.707633333333     0          
O        O      0.177300000000     0.021233333333     0.750000000000     0          
O        O      0.038766666667     0.294566666667     0.677533333333     0          
T        Si     0.139833333333     0.030000000000     0.750000000000     0          
T        Si     0.082733333333     0.000000000000     0.666666666667     0          
O        O      0.078533333333     0.157033333333     0.916666666667     0          
O        O      0.102266666667     0.112400000000     0.874300000000     0          
O        O      0.156066666667     0.177300000000     0.916666666667     0          
O        O      0.077533333333     0.038766666667     0.844200000000     0          
T        Si     0.109833333333     0.139833333333     0.916666666667     0          
T        Si     0.082733333333     0.082733333333     0.833333333333     0          
O        O      0.254833333333     0.078533333333     0.750000000000     0          
O        O      0.323200000000     0.102266666667     0.707633333333     0          
O        O      0.312100000000     0.156066666667     0.750000000000     0          
O        O      0.038766666667     0.077533333333     0.677533333333     0          
T        Si     0.303333333333     0.109833333333     0.750000000000     0          
T        Si     0.000000000000     0.082733333333     0.666666666667     0          
O        O      0.176300000000     0.254833333333     0.916666666667     0          
O        O      0.220933333333     0.323200000000     0.874300000000     0          
O        O      0.156033333333     0.312100000000     0.916666666667     0          
O        O      0.294566666667     0.038766666667     0.844200000000     0          
T        Si     0.193500000000     0.303333333333     0.916666666667     0          
T        Si     0.250600000000     0.000000000000     0.833333333333     0          
O        O      0.254800000000     0.176300000000     0.750000000000     0          
O        O      0.231066666667     0.220933333333     0.707633333333     0          
O        O      0.177266666667     0.156033333333     0.750000000000     0          
O        O      0.255800000000     0.294566666667     0.677533333333     0          
T        Si     0.223500000000     0.193500000000     0.750000000000     0          
T        Si     0.250600000000     0.250600000000     0.666666666667     0          
O        O      0.078500000000     0.254800000000     0.916666666667     0          
O        O      0.010133333333     0.231066666667     0.874300000000     0          
O        O      0.021233333333     0.177266666667     0.916666666667     0          
O        O      0.294566666667     0.255800000000     0.844200000000     0          
T        Si     0.030000000000     0.223500000000     0.916666666667     0          
T        Si     0.000000000000     0.250600000000     0.833333333333     0          
O        O      0.323200000000     0.220933333333     0.792366666667     0          
O        O      0.038766666667     0.294566666667     0.822466666667     0          
T        Si     0.303333333333     0.193500000000     0.750000000000     0          
O        O      0.102266666667     0.323200000000     0.959033333333     0          
O        O      0.077533333333     0.038766666667     0.989133333333     0          
T        Si     0.109833333333     0.303333333333     0.916666666667     0          
O        O      0.112400000000     0.102266666667     0.792366666667     0          
O        O      0.038766666667     0.077533333333     0.822466666667     0          
T        Si     0.139833333333     0.109833333333     0.750000000000     0          
O        O      0.010133333333     0.112400000000     0.959033333333     0          
O        O      0.294566666667     0.038766666667     0.989133333333     0          
T        Si     0.030000000000     0.139833333333     0.916666666667     0          
O        O      0.231066666667     0.010133333333     0.792366666667     0          
O        O      0.255800000000     0.294566666667     0.822466666667     0          
T        Si     0.223500000000     0.030000000000     0.750000000000     0          
O        O      0.220933333333     0.231066666667     0.959033333333     0          
O        O      0.294566666667     0.255800000000     0.989133333333     0          
T        Si     0.193500000000     0.223500000000     0.916666666667     0          
O        O      0.220933333333     0.323200000000     0.959033333333     0          
T        Si     0.250600000000     0.000000000000     0.666666666667     0          
O        O      0.231066666667     0.220933333333     0.792366666667     0          
T        Si     0.250600000000     0.250600000000     0.833333333333     0          
O        O      0.010133333333     0.231066666667     0.959033333333     0          
T        Si     0.000000000000     0.250600000000     0.666666666667     0          
O        O      0.112400000000     0.010133333333     0.792366666667     0          
T        Si     0.082733333333     0.000000000000     0.833333333333     0          
O        O      0.102266666667     0.112400000000     0.959033333333     0          
T        Si     0.082733333333     0.082733333333     0.666666666667     0          
O        O      0.323200000000     0.102266666667     0.792366666667     0          
T        Si     0.000000000000     0.082733333333     0.833333333333     0          
O        O      0.010133333333     0.112400000000     0.874300000000     0          
O        O      0.231066666667     0.010133333333     0.707633333333     0          
O        O      0.220933333333     0.231066666667     0.874300000000     0          
O        O      0.323200000000     0.220933333333     0.707633333333     0          
O        O      0.102266666667     0.323200000000     0.874300000000     0          
O        O      0.112400000000     0.102266666667     0.707633333333     0          
O        O      0.157033333333     0.411833333333     0.083333333333     0          
O        O      0.112400000000     0.343466666667     0.040966666667     0          
O        O      0.177300000000     0.354566666667     0.083333333333     0          
O        O      0.038766666667     0.627900000000     0.010866666667     0          
T        Si     0.139833333333     0.363333333333     0.083333333333     0          
T        Si     0.082733333333     0.333333333333     0.000000000000     0          
O        O      0.078533333333     0.490366666667     0.250000000000     0          
O        O      0.102266666667     0.445733333333     0.207633333333     0          
O        O      0.156066666667     0.510633333333     0.250000000000     0          
O        O      0.077533333333     0.372100000000     0.177533333333     0          
T        Si     0.109833333333     0.473166666667     0.250000000000     0          
T        Si     0.082733333333     0.416066666667     0.166666666667     0          
O        O      0.254833333333     0.411866666667     0.083333333333     0          
O        O      0.323200000000     0.435600000000     0.040966666667     0          
O        O      0.312100000000     0.489400000000     0.083333333333     0          
O        O      0.038766666667     0.410866666667     0.010866666667     0          
T        Si     0.303333333333     0.443166666667     0.083333333333     0          
T        Si     0.000000000000     0.416066666667     0.000000000000     0          
O        O      0.176300000000     0.588166666667     0.250000000000     0          
O        O      0.220933333333     0.656533333333     0.207633333333     0          
O        O      0.156033333333     0.645433333333     0.250000000000     0          
O        O      0.294566666667     0.372100000000     0.177533333333     0          
T        Si     0.193500000000     0.636666666667     0.250000000000     0          
T        Si     0.250600000000     0.333333333333     0.166666666667     0          
O        O      0.254800000000     0.509633333333     0.083333333333     0          
O        O      0.231066666667     0.554266666667     0.040966666667     0          
O        O      0.177266666667     0.489366666667     0.083333333333     0          
O        O      0.255800000000     0.627900000000     0.010866666667     0          
T        Si     0.223500000000     0.526833333333     0.083333333333     0          
T        Si     0.250600000000     0.583933333333     0.000000000000     0          
O        O      0.078500000000     0.588133333333     0.250000000000     0          
O        O      0.010133333333     0.564400000000     0.207633333333     0          
O        O      0.021233333333     0.510600000000     0.250000000000     0          
O        O      0.294566666667     0.589133333333     0.177533333333     0          
T        Si     0.030000000000     0.556833333333     0.250000000000     0          
T        Si     0.000000000000     0.583933333333     0.166666666667     0          
O        O      0.323200000000     0.554266666667     0.125700000000     0          
O        O      0.038766666667     0.627900000000     0.155800000000     0          
T        Si     0.303333333333     0.526833333333     0.083333333333     0          
O        O      0.102266666667     0.656533333333     0.292366666667     0          
O        O      0.077533333333     0.372100000000     0.322466666667     0          
T        Si     0.109833333333     0.636666666667     0.250000000000     0          
O        O      0.112400000000     0.435600000000     0.125700000000     0          
O        O      0.038766666667     0.410866666667     0.155800000000     0          
T        Si     0.139833333333     0.443166666667     0.083333333333     0          
O        O      0.010133333333     0.445733333333     0.292366666667     0          
O        O      0.294566666667     0.372100000000     0.322466666667     0          
T        Si     0.030000000000     0.473166666667     0.250000000000     0          
O        O      0.231066666667     0.343466666667     0.125700000000     0          
O        O      0.255800000000     0.627900000000     0.155800000000     0          
T        Si     0.223500000000     0.363333333333     0.083333333333     0          
O        O      0.220933333333     0.564400000000     0.292366666667     0          
O        O      0.294566666667     0.589133333333     0.322466666667     0          
T        Si     0.193500000000     0.556833333333     0.250000000000     0          
O        O      0.220933333333     0.656533333333     0.292366666667     0          
T        Si     0.250600000000     0.333333333333     0.000000000000     0          
O        O      0.231066666667     0.554266666667     0.125700000000     0          
T        Si     0.250600000000     0.583933333333     0.166666666667     0          
O        O      0.010133333333     0.564400000000     0.292366666667     0          
T        Si     0.000000000000     0.583933333333     0.000000000000     0          
O        O      0.112400000000     0.343466666667     0.125700000000     0          
T        Si     0.082733333333     0.333333333333     0.166666666667     0          
O        O      0.102266666667     0.445733333333     0.292366666667     0          
T        Si     0.082733333333     0.416066666667     0.000000000000     0          
O        O      0.323200000000     0.435600000000     0.125700000000     0          
T        Si     0.000000000000     0.416066666667     0.166666666667     0          
O        O      0.010133333333     0.445733333333     0.207633333333     0          
O        O      0.231066666667     0.343466666667     0.040966666667     0          
O        O      0.220933333333     0.564400000000     0.207633333333     0          
O        O      0.323200000000     0.554266666667     0.040966666667     0          
O        O      0.102266666667     0.656533333333     0.207633333333     0          
O        O      0.112400000000     0.435600000000     0.040966666667     0          
O        O      0.157033333333     0.411833333333     0.416666666667     0          
O        O      0.112400000000     0.343466666667     0.374300000000     0          
O        O      0.177300000000     0.354566666667     0.416666666667     0          
O        O      0.038766666667     0.627900000000     0.344200000000     0          
T        Si     0.139833333333     0.363333333333     0.416666666667     0          
T        Si     0.082733333333     0.333333333333     0.333333333333     0          
O        O      0.078533333333     0.490366666667     0.583333333333     0          
O        O      0.102266666667     0.445733333333     0.540966666667     0          
O        O      0.156066666667     0.510633333333     0.583333333333     0          
O        O      0.077533333333     0.372100000000     0.510866666667     0          
T        Si     0.109833333333     0.473166666667     0.583333333333     0          
T        Si     0.082733333333     0.416066666667     0.500000000000     0          
O        O      0.254833333333     0.411866666667     0.416666666667     0          
O        O      0.323200000000     0.435600000000     0.374300000000     0          
O        O      0.312100000000     0.489400000000     0.416666666667     0          
O        O      0.038766666667     0.410866666667     0.344200000000     0          
T        Si     0.303333333333     0.443166666667     0.416666666667     0          
T        Si     0.000000000000     0.416066666667     0.333333333333     0          
O        O      0.176300000000     0.588166666667     0.583333333333     0          
O        O      0.220933333333     0.656533333333     0.540966666667     0          
O        O      0.156033333333     0.645433333333     0.583333333333     0          
O        O      0.294566666667     0.372100000000     0.510866666667     0          
T        Si     0.193500000000     0.636666666667     0.583333333333     0          
T        Si     0.250600000000     0.333333333333     0.500000000000     0          
O        O      0.254800000000     0.509633333333     0.416666666667     0          
O        O      0.231066666667     0.554266666667     0.374300000000     0          
O        O      0.177266666667     0.489366666667     0.416666666667     0          
O        O      0.255800000000     0.627900000000     0.344200000000     0          
T        Si     0.223500000000     0.526833333333     0.416666666667     0          
T        Si     0.250600000000     0.583933333333     0.333333333333     0          
O        O      0.078500000000     0.588133333333     0.583333333333     0          
O        O      0.010133333333     0.564400000000     0.540966666667     0          
O        O      0.021233333333     0.510600000000     0.583333333333     0          
O        O      0.294566666667     0.589133333333     0.510866666667     0          
T        Si     0.030000000000     0.556833333333     0.583333333333     0          
T        Si     0.000000000000     0.583933333333     0.500000000000     0          
O        O      0.323200000000     0.554266666667     0.459033333333     0          
O        O      0.038766666667     0.627900000000     0.489133333333     0          
T        Si     0.303333333333     0.526833333333     0.416666666667     0          
O        O      0.102266666667     0.656533333333     0.625700000000     0          
O        O      0.077533333333     0.372100000000     0.655800000000     0          
T        Si     0.109833333333     0.636666666667     0.583333333333     0          
O        O      0.112400000000     0.435600000000     0.459033333333     0          
O        O      0.038766666667     0.410866666667     0.489133333333     0          
T        Si     0.139833333333     0.443166666667     0.416666666667     0          
O        O      0.010133333333     0.445733333333     0.625700000000     0          
O        O      0.294566666667     0.372100000000     0.655800000000     0          
T        Si     0.030000000000     0.473166666667     0.583333333333     0          
O        O      0.231066666667     0.343466666667     0.459033333333     0          
O        O      0.255800000000     0.627900000000     0.489133333333     0          
T        Si     0.223500000000     0.363333333333     0.416666666667     0          
O        O      0.220933333333     0.564400000000     0.625700000000     0          
O        O      0.294566666667     0.589133333333     0.655800000000     0          
T        Si     0.193500000000     0.556833333333     0.583333333333     0          
O        O      0.220933333333     0.656533333333     0.625700000000     0          
T        Si     0.250600000000     0.333333333333     0.333333333333     0          
O        O      0.231066666667     0.554266666667     0.459033333333     0          
T        Si     0.250600000000     0.583933333333     0.500000000000     0          
O        O      0.010133333333     0.564400000000     0.625700000000     0          
T        Si     0.000000000000     0.583933333333     0.333333333333     0          
O        O      0.112400000000     0.343466666667     0.459033333333     0          
T        Si     0.082733333333     0.333333333333     0.500000000000     0          
O        O      0.102266666667     0.445733333333     0.625700000000     0          
T        Si     0.082733333333     0.416066666667     0.333333333333     0          
O        O      0.323200000000     0.435600000000     0.459033333333     0          
T        Si     0.000000000000     0.416066666667     0.500000000000     0          
O        O      0.010133333333     0.445733333333     0.540966666667     0          
O        O      0.231066666667     0.343466666667     0.374300000000     0          
O        O      0.220933333333     0.564400000000     0.540966666667     0          
O        O      0.323200000000     0.554266666667     0.374300000000     0          
O        O      0.102266666667     0.656533333333     0.540966666667     0          
O        O      0.112400000000     0.435600000000     0.374300000000     0          
O        O      0.157033333333     0.411833333333     0.750000000000     0          
O        O      0.112400000000     0.343466666667     0.707633333333     0          
O        O      0.177300000000     0.354566666667     0.750000000000     0          
O        O      0.038766666667     0.627900000000     0.677533333333     0          
T        Si     0.139833333333     0.363333333333     0.750000000000     0          
T        Si     0.082733333333     0.333333333333     0.666666666667     0          
O        O      0.078533333333     0.490366666667     0.916666666667     0          
O        O      0.102266666667     0.445733333333     0.874300000000     0          
O        O      0.156066666667     0.510633333333     0.916666666667     0          
O        O      0.077533333333     0.372100000000     0.844200000000     0          
T        Si     0.109833333333     0.473166666667     0.916666666667     0          
T        Si     0.082733333333     0.416066666667     0.833333333333     0          
O        O      0.254833333333     0.411866666667     0.750000000000     0          
O        O      0.323200000000     0.435600000000     0.707633333333     0          
O        O      0.312100000000     0.489400000000     0.750000000000     0          
O        O      0.038766666667     0.410866666667     0.677533333333     0          
T        Si     0.303333333333     0.443166666667     0.750000000000     0          
T        Si     0.000000000000     0.416066666667     0.666666666667     0          
O        O      0.176300000000     0.588166666667     0.916666666667     0          
O        O      0.220933333333     0.656533333333     0.874300000000     0          
O        O      0.156033333333     0.645433333333     0.916666666667     0          
O        O      0.294566666667     0.372100000000     0.844200000000     0          
T        Si     0.193500000000     0.636666666667     0.916666666667     0          
T        Si     0.250600000000     0.333333333333     0.833333333333     0          
O        O      0.254800000000     0.509633333333     0.750000000000     0          
O        O      0.231066666667     0.554266666667     0.707633333333     0          
O        O      0.177266666667     0.489366666667     0.750000000000     0          
O        O      0.255800000000     0.627900000000     0.677533333333     0          
T        Si     0.223500000000     0.526833333333     0.750000000000     0          
T        Si     0.250600000000     0.583933333333     0.666666666667     0          
O        O      0.078500000000     0.588133333333     0.916666666667     0          
O        O      0.010133333333     0.564400000000     0.874300000000     0          
O        O      0.021233333333     0.510600000000     0.916666666667     0          
O        O      0.294566666667     0.589133333333     0.844200000000     0          
T        Si     0.030000000000     0.556833333333     0.916666666667     0          
T        Si     0.000000000000     0.583933333333     0.833333333333     0          
O        O      0.323200000000     0.554266666667     0.792366666667     0          
O        O      0.038766666667     0.627900000000     0.822466666667     0          
T        Si     0.303333333333     0.526833333333     0.750000000000     0          
O        O      0.102266666667     0.656533333333     0.959033333333     0          
O        O      0.077533333333     0.372100000000     0.989133333333     0          
T        Si     0.109833333333     0.636666666667     0.916666666667     0          
O        O      0.112400000000     0.435600000000     0.792366666667     0          
O        O      0.038766666667     0.410866666667     0.822466666667     0          
T        Si     0.139833333333     0.443166666667     0.750000000000     0          
O        O      0.010133333333     0.445733333333     0.959033333333     0          
O        O      0.294566666667     0.372100000000     0.989133333333     0          
T        Si     0.030000000000     0.473166666667     0.916666666667     0          
O        O      0.231066666667     0.343466666667     0.792366666667     0          
O        O      0.255800000000     0.627900000000     0.822466666667     0          
T        Si     0.223500000000     0.363333333333     0.750000000000     0          
O        O      0.220933333333     0.564400000000     0.959033333333     0          
O        O      0.294566666667     0.589133333333     0.989133333333     0          
T        Si     0.193500000000     0.556833333333     0.916666666667     0          
O        O      0.220933333333     0.656533333333     0.959033333333     0          
T        Si     0.250600000000     0.333333333333     0.666666666667     0          
O        O      0.231066666667     0.554266666667     0.792366666667     0          
T        Si     0.250600000000     0.583933333333     0.833333333333     0          
O        O      0.010133333333     0.564400000000     0.959033333333     0          
T        Si     0.000000000000     0.583933333333     0.666666666667     0          
O        O      0.112400000000     0.343466666667     0.792366666667     0          
T        Si     0.082733333333     0.333333333333     0.833333333333     0          
O        O      0.102266666667     0.445733333333     0.959033333333     0          
T        Si     0.082733333333     0.416066666667     0.666666666667     0          
O        O      0.323200000000     0.435600000000     0.792366666667     0          
T        Si     0.000000000000     0.416066666667     0.833333333333     0          
O        O      0.010133333333     0.445733333333     0.874300000000     0          
O        O      0.231066666667     0.343466666667     0.707633333333     0          
O        O      0.220933333333     0.564400000000     0.874300000000     0          
O        O      0.323200000000     0.554266666667     0.707633333333     0          
O        O      0.102266666667     0.656533333333     0.874300000000     0          
O        O      0.112400000000     0.435600000000     0.707633333333     0          
O        O      0.157033333333     0.745166666667     0.083333333333     0          
O        O      0.112400000000     0.676800000000     0.040966666667     0          
O        O      0.177300000000     0.687900000000     0.083333333333     0          
O        O      0.038766666667     0.961233333333     0.010866666667     0          
T        Si     0.139833333333     0.696666666667     0.083333333333     0          
T        Si     0.082733333333     0.666666666667     0.000000000000     0          
O        O      0.078533333333     0.823700000000     0.250000000000     0          
O        O      0.102266666667     0.779066666667     0.207633333333     0          
O        O      0.156066666667     0.843966666667     0.250000000000     0          
O        O      0.077533333333     0.705433333333     0.177533333333     0          
T        Si     0.109833333333     0.806500000000     0.250000000000     0          
T        Si     0.082733333333     0.749400000000     0.166666666667     0          
O        O      0.254833333333     0.745200000000     0.083333333333     0          
O        O      0.323200000000     0.768933333333     0.040966666667     0          
O        O      0.312100000000     0.822733333333     0.083333333333     0          
O        O      0.038766666667     0.744200000000     0.010866666667     0          
T        Si     0.303333333333     0.776500000000     0.083333333333     0          
T        Si     0.000000000000     0.749400000000     0.000000000000     0          
O        O      0.176300000000     0.921500000000     0.250000000000     0          
O        O      0.220933333333     0.989866666667     0.207633333333     0          
O        O      0.156033333333     0.978766666667     0.250000000000     0          
O        O      0.294566666667     0.705433333333     0.177533333333     0          
T        Si     0.193500000000     0.970000000000     0.250000000000     0          
T        Si     0.250600000000     0.666666666667     0.166666666667     0          
O        O      0.254800000000     0.842966666667     0.083333333333     0          
O        O      0.231066666667     0.887600000000     0.040966666667     0          
O        O      0.177266666667     0.822700000000     0.083333333333     0          
O        O      0.255800000000     0.961233333333     0.010866666667     0          
T        Si     0.223500000000     0.860166666667     0.083333333333     0          
T        Si     0.250600000000     0.917266666667     0.000000000000     0          
O        O      0.078500000000     0.921466666667     0.250000000000     0          
O        O      0.010133333333     0.897733333333     0.207633333333     0          
O        O      0.021233333333     0.843933333333     0.250000000000     0          
O        O      0.294566666667     0.922466666667     0.177533333333     0          
T        Si     0.030000000000     0.890166666667     0.250000000000     0          
T        Si     0.000000000000     0.917266666667     0.166666666667     0          
O        O      0.323200000000     0.887600000000     0.125700000000     0          
O        O      0.038766666667     0.961233333333     0.155800000000     0          
T        Si     0.303333333333     0.860166666667     0.083333333333     0          
O        O      0.102266666667     0.989866666667     0.292366666667     0          
O        O      0.077533333333     0.705433333333     0.322466666667     0          
T        Si     0.109833333333     0.970000000000     0.250000000000     0          
O        O      0.112400000000     0.768933333333     0.125700000000     0          
O        O      0.038766666667     0.744200000000     0.155800000000     0          
T        Si     0.139833333333     0.776500000000     0.083333333333     0          
O        O      0.010133333333     0.779066666667     0.292366666667     0          
O        O      0.294566666667     0.705433333333     0.322466666667     0          
T        Si     0.030000000000     0.806500000000     0.250000000000     0          
O        O      0.231066666667     0.676800000000     0.125700000000     0          
O        O      0.255800000000     0.961233333333     0.155800000000     0          
T        Si     0.223500000000     0.696666666667     0.083333333333     0          
O        O      0.220933333333     0.897733333333     0.292366666667     0          
O        O      0.294566666667     0.922466666667     0.322466666667     0          
T        Si     0.193500000000     0.890166666667     0.250000000000     0          
O        O      0.220933333333     0.989866666667     0.292366666667     0          
T        Si     0.250600000000     0.666666666667     0.000000000000     0          
O        O      0.231066666667     0.887600000000     0.125700000000     0          
T        Si     0.250600000000     0.917266666667     0.166666666667     0          
O        O      0.010133333333     0.897733333333     0.292366666667     0          
T        Si     0.000000000000     0.917266666667     0.000000000000     0          
O        O      0.112400000000     0.676800000000     0.125700000000     0          
T        Si     0.082733333333     0.666666666667     0.166666666667     0          
O        O      0.102266666667     0.779066666667     0.292366666667     0          
T        Si     0.082733333333     0.749400000000     0.000000000000     0          
O        O      0.323200000000     0.768933333333     0.125700000000     0          
T        Si     0.000000000000     0.749400000000     0.166666666667     0          
O        O      0.010133333333     0.779066666667     0.207633333333     0          
O        O      0.231066666667     0.676800000000     0.040966666667     0          
O        O      0.220933333333     0.897733333333     0.207633333333     0          
O        O      0.323200000000     0.887600000000     0.040966666667     0          
O        O      0.102266666667     0.989866666667     0.207633333333     0          
O        O      0.112400000000     0.768933333333     0.040966666667     0          
O        O      0.157033333333     0.745166666667     0.416666666667     0          
O        O      0.112400000000     0.676800000000     0.374300000000     0          
O        O      0.177300000000     0.687900000000     0.416666666667     0          
O        O      0.038766666667     0.961233333333     0.344200000000     0          
T        Si     0.139833333333     0.696666666667     0.416666666667     0          
T        Si     0.082733333333     0.666666666667     0.333333333333     0          
O        O      0.078533333333     0.823700000000     0.583333333333     0          
O        O      0.102266666667     0.779066666667     0.540966666667     0          
O        O      0.156066666667     0.843966666667     0.583333333333     0          
O        O      0.077533333333     0.705433333333     0.510866666667     0          
T        Si     0.109833333333     0.806500000000     0.583333333333     0          
T        Si     0.082733333333     0.749400000000     0.500000000000     0          
O        O      0.254833333333     0.745200000000     0.416666666667     0          
O        O      0.323200000000     0.768933333333     0.374300000000     0          
O        O      0.312100000000     0.822733333333     0.416666666667     0          
O        O      0.038766666667     0.744200000000     0.344200000000     0          
T        Si     0.303333333333     0.776500000000     0.416666666667     0          
T        Si     0.000000000000     0.749400000000     0.333333333333     0          
O        O      0.176300000000     0.921500000000     0.583333333333     0          
O        O      0.220933333333     0.989866666667     0.540966666667     0          
O        O      0.156033333333     0.978766666667     0.583333333333     0          
O        O      0.294566666667     0.705433333333     0.510866666667     0          
T        Si     0.193500000000     0.970000000000     0.583333333333     0          
T        Si     0.250600000000     0.666666666667     0.500000000000     0          
O        O      0.254800000000     0.842966666667     0.416666666667     0          
O        O      0.231066666667     0.887600000000     0.374300000000     0          
O        O      0.177266666667     0.822700000000     0.416666666667     0          
O        O      0.255800000000     0.961233333333     0.344200000000     0          
T        Si     0.223500000000     0.860166666667     0.416666666667     0          
T        Si     0.250600000000     0.917266666667     0.333333333333     0          
O        O      0.078500000000     0.921466666667     0.583333333333     0          
O        O      0.010133333333     0.897733333333     0.540966666667     0          
O        O      0.021233333333     0.843933333333     0.583333333333     0          
O        O      0.294566666667     0.922466666667     0.510866666667     0          
T        Si     0.030000000000     0.890166666667     0.583333333333     0          
T        Si     0.000000000000     0.917266666667     0.500000000000     0          
O        O      0.323200000000     0.887600000000     0.459033333333     0          
O        O      0.038766666667     0.961233333333     0.489133333333     0          
T        Si     0.303333333333     0.860166666667     0.416666666667     0          
O        O      0.102266666667     0.989866666667     0.625700000000     0          
O        O      0.077533333333     0.705433333333     0.655800000000     0          
T        Si     0.109833333333     0.970000000000     0.583333333333     0          
O        O      0.112400000000     0.768933333333     0.459033333333     0          
O        O      0.038766666667     0.744200000000     0.489133333333     0          
T        Si     0.139833333333     0.776500000000     0.416666666667     0          
O        O      0.010133333333     0.779066666667     0.625700000000     0          
O        O      0.294566666667     0.705433333333     0.655800000000     0          
T        Si     0.030000000000     0.806500000000     0.583333333333     0          
O        O      0.231066666667     0.676800000000     0.459033333333     0          
O        O      0.255800000000     0.961233333333     0.489133333333     0          
T        Si     0.223500000000     0.696666666667     0.416666666667     0          
O        O      0.220933333333     0.897733333333     0.625700000000     0          
O        O      0.294566666667     0.922466666667     0.655800000000     0          
T        Si     0.193500000000     0.890166666667     0.583333333333     0          
O        O      0.220933333333     0.989866666667     0.625700000000     0          
T        Si     0.250600000000     0.666666666667     0.333333333333     0          
O        O      0.231066666667     0.887600000000     0.459033333333     0          
T        Si     0.250600000000     0.917266666667     0.500000000000     0          
O        O      0.010133333333     0.897733333333     0.625700000000     0          
T        Si     0.000000000000     0.917266666667     0.333333333333     0          
O        O      0.112400000000     0.676800000000     0.459033333333     0          
T        Si     0.082733333333     0.666666666667     0.500000000000     0          
O        O      0.102266666667     0.779066666667     0.625700000000     0          
T        Si     0.082733333333     0.749400000000     0.333333333333     0          
O        O      0.323200000000     0.768933333333     0.459033333333     0          
T        Si     0.000000000000     0.749400000000     0.500000000000     0          
O        O      0.010133333333     0.779066666667     0.540966666667     0          
O        O      0.231066666667     0.676800000000     0.374300000000     0          
O        O      0.220933333333     0.897733333333     0.540966666667     0          
O        O      0.323200000000     0.887600000000     0.374300000000     0          
O        O      0.102266666667     0.989866666667     0.540966666667     0          
O        O      0.112400000000     0.768933333333     0.374300000000     0          
O        O      0.157033333333     0.745166666667     0.750000000000     0          
O        O      0.112400000000     0.676800000000     0.707633333333     0          
O        O      0.177300000000     0.687900000000     0.750000000000     0          
O        O      0.038766666667     0.961233333333     0.677533333333     0          
T        Si     0.139833333333     0.696666666667     0.750000000000     0          
T        Si     0.082733333333     0.666666666667     0.666666666667     0          
O        O      0.078533333333     0.823700000000     0.916666666667     0          
O        O      0.102266666667     0.779066666667     0.874300000000     0          
O        O      0.156066666667     0.843966666667     0.916666666667     0          
O        O      0.077533333333     0.705433333333     0.844200000000     0          
T        Si     0.109833333333     0.806500000000     0.916666666667     0          
T        Si     0.082733333333     0.749400000000     0.833333333333     0          
O        O      0.254833333333     0.745200000000     0.750000000000     0          
O        O      0.323200000000     0.768933333333     0.707633333333     0          
O        O      0.312100000000     0.822733333333     0.750000000000     0          
O        O      0.038766666667     0.744200000000     0.677533333333     0          
T        Si     0.303333333333     0.776500000000     0.750000000000     0          
T        Si     0.000000000000     0.749400000000     0.666666666667     0          
O        O      0.176300000000     0.921500000000     0.916666666667     0          
O        O      0.220933333333     0.989866666667     0.874300000000     0          
O        O      0.156033333333     0.978766666667     0.916666666667     0          
O        O      0.294566666667     0.705433333333     0.844200000000     0          
T        Si     0.193500000000     0.970000000000     0.916666666667     0          
T        Si     0.250600000000     0.666666666667     0.833333333333     0          
O        O      0.254800000000     0.842966666667     0.750000000000     0          
O        O      0.231066666667     0.887600000000     0.707633333333     0          
O        O      0.177266666667     0.822700000000     0.750000000000     0          
O        O      0.255800000000     0.961233333333     0.677533333333     0          
T        Si     0.223500000000     0.860166666667     0.750000000000     0          
T        Si     0.250600000000     0.917266666667     0.666666666667     0          
O        O      0.078500000000     0.921466666667     0.916666666667     0          
O        O      0.010133333333     0.897733333333     0.874300000000     0          
O        O      0.021233333333     0.843933333333     0.916666666667     0          
O        O      0.294566666667     0.922466666667     0.844200000000     0          
T        Si     0.030000000000     0.890166666667     0.916666666667     0          
T        Si     0.000000000000     0.917266666667     0.833333333333     0          
O        O      0.323200000000     0.887600000000     0.792366666667     0          
O        O      0.038766666667     0.961233333333     0.822466666667     0          
T        Si     0.303333333333     0.860166666667     0.750000000000     0          
O        O      0.102266666667     0.989866666667     0.959033333333     0          
O        O      0.077533333333     0.705433333333     0.989133333333     0          
T        Si     0.109833333333     0.970000000000     0.916666666667     0          
O        O      0.112400000000     0.768933333333     0.792366666667     0          
O        O      0.038766666667     0.744200000000     0.822466666667     0          
T        Si     0.139833333333     0.776500000000     0.750000000000     0          
O        O      0.010133333333     0.779066666667     0.959033333333     0          
O        O      0.294566666667     0.705433333333     0.989133333333     0          
T        Si     0.030000000000     0.806500000000     0.916666666667     0          
O        O      0.231066666667     0.676800000000     0.792366666667     0          
O        O      0.255800000000     0.961233333333     0.822466666667     0          
T        Si     0.223500000000     0.696666666667     0.750000000000     0          
O        O      0.220933333333     0.897733333333     0.959033333333     0          
O        O      0.294566666667     0.922466666667     0.989133333333     0          
T        Si     0.193500000000     0.890166666667     0.916666666667     0          
O        O      0.220933333333     0.989866666667     0.959033333333     0          
T        Si     0.250600000000     0.666666666667     0.666666666667     0          
O        O      0.231066666667     0.887600000000     0.792366666667     0          
T        Si     0.250600000000     0.917266666667     0.833333333333     0          
O        O      0.010133333333     0.897733333333     0.959033333333     0          
T        Si     0.000000000000     0.917266666667     0.666666666667     0          
O        O      0.112400000000     0.676800000000     0.792366666667     0          
T        Si     0.082733333333     0.666666666667     0.833333333333     0          
O        O      0.102266666667     0.779066666667     0.959033333333     0          
T        Si     0.082733333333     0.749400000000     0.666666666667     0          
O        O      0.323200000000     0.768933333333     0.792366666667     0          
T        Si     0.000000000000     0.749400000000     0.833333333333     0          
O        O      0.010133333333     0.779066666667     0.874300000000     0          
O        O      0.231066666667     0.676800000000     0.707633333333     0          
O        O      0.220933333333     0.897733333333     0.874300000000     0          
O        O      0.323200000000     0.887600000000     0.707633333333     0          
O        O      0.102266666667     0.989866666667     0.874300000000     0          
O        O      0.112400000000     0.768933333333     0.707633333333     0          
O        O      0.490366666667     0.078500000000     0.083333333333     0          
O        O      0.445733333333     0.010133333333     0.040966666667     0          
O        O      0.510633333333     0.021233333333     0.083333333333     0          
O        O      0.372100000000     0.294566666667     0.010866666667     0          
T        Si     0.473166666667     0.030000000000     0.083333333333     0          
T        Si     0.416066666667     0.000000000000     0.000000000000     0          
O        O      0.411866666667     0.157033333333     0.250000000000     0          
O        O      0.435600000000     0.112400000000     0.207633333333     0          
O        O      0.489400000000     0.177300000000     0.250000000000     0          
O        O      0.410866666667     0.038766666667     0.177533333333     0          
T        Si     0.443166666667     0.139833333333     0.250000000000     0          
T        Si     0.416066666667     0.082733333333     0.166666666667     0          
O        O      0.588166666667     0.078533333333     0.083333333333     0          
O        O      0.656533333333     0.102266666667     0.040966666667     0          
O        O      0.645433333333     0.156066666667     0.083333333333     0          
O        O      0.372100000000     0.077533333333     0.010866666667     0          
T        Si     0.636666666667     0.109833333333     0.083333333333     0          
T        Si     0.333333333333     0.082733333333     0.000000000000     0          
O        O      0.509633333333     0.254833333333     0.250000000000     0          
O        O      0.554266666667     0.323200000000     0.207633333333     0          
O        O      0.489366666667     0.312100000000     0.250000000000     0          
O        O      0.627900000000     0.038766666667     0.177533333333     0          
T        Si     0.526833333333     0.303333333333     0.250000000000     0          
T        Si     0.583933333333     0.000000000000     0.166666666667     0          
O        O      0.588133333333     0.176300000000     0.083333333333     0          
O        O      0.564400000000     0.220933333333     0.040966666667     0          
O        O      0.510600000000     0.156033333333     0.083333333333     0          
O        O      0.589133333333     0.294566666667     0.010866666667     0          
T        Si     0.556833333333     0.193500000000     0.083333333333     0          
T        Si     0.583933333333     0.250600000000     0.000000000000     0          
O        O      0.411833333333     0.254800000000     0.250000000000     0          
O        O      0.343466666667     0.231066666667     0.207633333333     0          
O        O      0.354566666667     0.177266666667     0.250000000000     0          
O        O      0.627900000000     0.255800000000     0.177533333333     0          
T        Si     0.363333333333     0.223500000000     0.250000000000     0          
T        Si     0.333333333333     0.250600000000     0.166666666667     0          
O        O      0.656533333333     0.220933333333     0.125700000000     0          
O        O      0.372100000000     0.294566666667     0.155800000000     0          
T        Si     0.636666666667     0.193500000000     0.083333333333     0          
O        O      0.435600000000     0.323200000000     0.292366666667     0          
O        O      0.410866666667     0.038766666667     0.322466666667     0          
T        Si     0.443166666667     0.303333333333     0.250000000000     0          
O        O      0.445733333333     0.102266666667     0.125700000000     0          
O        O      0.372100000000     0.077533333333     0.155800000000     0          
T        Si     0.473166666667     0.109833333333     0.083333333333     0          
O        O      0.343466666667     0.112400000000     0.292366666667     0          
O        O      0.627900000000     0.038766666667     0.322466666667     0          
T        Si     0.363333333333     0.139833333333     0.250000000000     0          
O        O      0.564400000000     0.010133333333     0.125700000000     0          
O        O      0.589133333333     0.294566666667     0.155800000000     0          
T        Si     0.556833333333     0.030000000000     0.083333333333     0          
O        O      0.554266666667     0.231066666667     0.292366666667     0          
O        O      0.627900000000     0.255800000000     0.322466666667     0          
T        Si     0.526833333333     0.223500000000     0.250000000000     0          
O        O      0.554266666667     0.323200000000     0.292366666667     0          
T        Si     0.583933333333     0.000000000000     0.000000000000     0          
O        O      0.564400000000     0.220933333333     0.125700000000     0          
T        Si     0.583933333333     0.250600000000     0.166666666667     0          
O        O      0.343466666667     0.231066666667     0.292366666667     0          
T        Si     0.333333333333     0.250600000000     0.000000000000     0          
O        O      0.445733333333     0.010133333333     0.125700000000     0          
T        Si     0.416066666667     0.000000000000     0.166666666667     0          
O        O      0.435600000000     0.112400000000     0.292366666667     0          
T        Si     0.416066666667     0.082733333333     0.000000000000     0          
O        O      0.656533333333     0.102266666667     0.125700000000     0          
T        Si     0.333333333333     0.082733333333     0.166666666667     0          
O        O      0.343466666667     0.112400000000     0.207633333333     0          
O        O      0.564400000000     0.010133333333     0.040966666667     0          
O        O      0.554266666667     0.231066666667     0.207633333333     0          
O        O      0.656533333333     0.220933333333     0.040966666667     0          
O        O      0.435600000000     0.323200000000     0.207633333333     0          
O        O      0.445733333333     0.102266666667     0.040966666667     0          
O        O      0.490366666667     0.078500000000     0.416666666667     0          
O        O      0.445733333333     0.010133333333     0.374300000000     0          
O        O      0.510633333333     0.021233333333     0.416666666667     0          
O        O      0.372100000000     0.294566666667     0.344200000000     0          
T        Si     0.473166666667     0.030000000000     0.416666666667     0          
T        Si     0.416066666667     0.000000000000     0.333333333333     0          
O        O      0.411866666667     0.157033333333     0.583333333333     0          
O        O      0.435600000000     0.112400000000     0.540966666667     0          
O        O      0.489400000000     0.177300000000     0.583333333333     0          
O        O      0.410866666667     0.038766666667     0.510866666667     0          
T        Si     0.443166666667     0.139833333333     0.583333333333     0          
T        Si     0.416066666667     0.082733333333     0.500000000000     0          
O        O      0.588166666667     0.078533333333     0.416666666667     0          
O        O      0.656533333333     0.102266666667     0.374300000000     0          
O        O      0.645433333333     0.156066666667     0.416666666667     0          
O        O      0.372100000000     0.077533333333     0.344200000000     0          
T        Si     0.636666666667     0.109833333333     0.416666666667     0          
T        Si     0.333333333333     0.082733333333     0.333333333333     0          
O        O      0.509633333333     0.254833333333     0.583333333333     0          
O        O      0.554266666667     0.323200000000     0.540966666667     0          
O        O      0.489366666667     0.312100000000     0.583333333333     0          
O        O      0.627900000000     0.038766666667     0.510866666667     0          
T        Si     0.526833333333     0.303333333333     0.583333333333     0          
T        Si     0.583933333333     0.000000000000     0.500000000000     0          
O        O      0.588133333333     0.176300000000     0.416666666667     0          
O        O      0.564400000000     0.220933333333     0.374300000000     0          
O        O      0.510600000000     0.156033333333     0.416666666667     0          
O        O      0.589133333333     0.294566666667     0.344200000000     0          
T        Si     0.556833333333     0.193500000000     0.416666666667     0          
T        Si     0.583933333333     0.250600000000     0.333333333333     0          
O        O      0.411833333333     0.254800000000     0.583333333333     0          
O        O      0.343466666667     0.231066666667     0.540966666667     0          
O        O      0.354566666667     0.177266666667     0.583333333333     0          
O        O      0.627900000000     0.255800000000     0.510866666667     0          
T        Si     0.363333333333     0.223500000000     0.583333333333     0          
T        Si     0.333333333333     0.250600000000     0.500000000000     0          
O        O      0.656533333333     0.220933333333     0.459033333333     0          
O        O      0.372100000000     0.294566666667     0.489133333333     0          
T        Si     0.636666666667     0.193500000000     0.416666666667     0          
O        O      0.435600000000     0.323200000000     0.625700000000     0          
O        O      0.410866666667     0.038766666667     0.655800000000     0          
T        Si     0.443166666667     0.303333333333     0.583333333333     0          
O        O      0.445733333333     0.102266666667     0.459033333333     0          
O        O      0.372100000000     0.077533333333     0.489133333333     0          
T        Si     0.473166666667     0.109833333333     0.416666666667     0          
O        O      0.343466666667     0.112400000000     0.625700000000     0          
O        O      0.627900000000     0.038766666667     0.655800000000     0          
T        Si     0.363333333333     0.139833333333     0.583333333333     0          
O        O      0.564400000000     0.010133333333     0.459033333333     0          
O        O      0.589133333333     0.294566666667     0.489133333333     0          
T        Si     0.556833333333     0.030000000000     0.416666666667     0          
O        O      0.554266666667     0.231066666667     0.625700000000     0          
O        O      0.627900000000     0.255800000000     0.655800000000     0          
T        Si     0.526833333333     0.223500000000     0.583333333333     0          
O        O      0.554266666667     0.323200000000     0.625700000000     0          
T        Si     0.583933333333     0.000000000000     0.333333333333     0          
O        O      0.564400000000     0.220933333333     0.459033333333     0          
T        Si     0.583933333333     0.250600000000     0.500000000000     0          
O        O      0.343466666667     0.231066666667     0.625700000000     0          
T        Si     0.333333333333     0.250600000000     0.333333333333     0          
O        O      0.445733333333     0.010133333333     0.459033333333     0          
T        Si     0.416066666667     0.000000000000     0.500000000000     0          
O        O      0.435600000000     0.112400000000     0.625700000000     0          
T        Si     0.416066666667     0.082733333333     0.333333333333     0          
O        O      0.656533333333     0.102266666667     0.459033333333     0          
T        Si     0.333333333333     0.082733333333     0.500000000000     0          
O        O      0.343466666667     0.112400000000     0.540966666667     0          
O        O      0.564400000000     0.010133333333     0.374300000000     0          
O        O      0.554266666667     0.231066666667     0.540966666667     0          
O        O      0.656533333333     0.220933333333     0.374300000000     0          
O        O      0.435600000000     0.323200000000     0.540966666667     0          
O        O      0.445733333333     0.102266666667     0.374300000000     0          
O        O      0.490366666667     0.078500000000     0.750000000000     0          
O        O      0.445733333333     0.010133333333     0.707633333333     0          
O        O      0.510633333333     0.021233333333     0.750000000000     0          
O        O      0.372100000000     0.294566666667     0.677533333333     0          
T        Si     0.473166666667     0.030000000000     0.750000000000     0          
T        Si     0.416066666667     0.000000000000     0.666666666667     0          
O        O      0.411866666667     0.157033333333     0.916666666667     0          
O        O      0.435600000000     0.112400000000     0.874300000000     0          
O        O      0.489400000000     0.177300000000     0.916666666667     0          
O        O      0.410866666667     0.038766666667     0.844200000000     0          
T        Si     0.443166666667     0.139833333333     0.916666666667     0          
T        Si     0.416066666667     0.082733333333     0.833333333333     0          
O        O      0.588166666667     0.078533333333     0.750000000000     0          
O        O      0.656533333333     0.102266666667     0.707633333333     0          
O        O      0.645433333333     0.156066666667     0.750000000000     0          
O        O      0.372100000000     0.077533333333     0.677533333333     0          
T        Si     0.636666666667     0.109833333333     0.750000000000     0          
T        Si     0.333333333333     0.082733333333     0.666666666667     0          
O        O      0.509633333333     0.254833333333     0.916666666667     0          
O        O      0.554266666667     0.323200000000     0.874300000000     0          
O        O      0.489366666667     0.312100000000     0.916666666667     0          
O        O      0.627900000000     0.038766666667     0.844200000000     0          
T        Si     0.526833333333     0.303333333333     0.916666666667     0          
T        Si     0.583933333333     0.000000000000     0.833333333333     0          
O        O      0.588133333333     0.176300000000     0.750000000000     0          
O        O      0.564400000000     0.220933333333     0.707633333333     0          
O        O      0.510600000000     0.156033333333     0.750000000000     0          
O        O      0.589133333333     0.294566666667     0.677533333333     0          
T        Si     0.556833333333     0.193500000000     0.750000000000     0          
T        Si     0.583933333333     0.250600000000     0.666666666667     0          
O        O      0.411833333333     0.254800000000     0.916666666667     0          
O        O      0.343466666667     0.231066666667     0.874300000000     0          
O        O      0.354566666667     0.177266666667     0.916666666667     0          
O        O      0.627900000000     0.255800000000     0.844200000000     0          
T        Si     0.363333333333     0.223500000000     0.916666666667     0          
T        Si     0.333333333333     0.250600000000     0.833333333333     0          
O        O      0.656533333333     0.220933333333     0.792366666667     0          
O        O      0.372100000000     0.294566666667     0.822466666667     0          
T        Si     0.636666666667     0.193500000000     0.750000000000     0          
O        O      0.435600000000     0.323200000000     0.959033333333     0          
O        O      0.410866666667     0.038766666667     0.989133333333     0          
T        Si     0.443166666667     0.303333333333     0.916666666667     0          
O        O      0.445733333333     0.102266666667     0.792366666667     0          
O        O      0.372100000000     0.077533333333     0.822466666667     0          
T        Si     0.473166666667     0.109833333333     0.750000000000     0          
O        O      0.343466666667     0.112400000000     0.959033333333     0          
O        O      0.627900000000     0.038766666667     0.989133333333     0          
T        Si     0.363333333333     0.139833333333     0.916666666667     0          
O        O      0.564400000000     0.010133333333     0.792366666667     0          
O        O      0.589133333333     0.294566666667     0.822466666667     0          
T        Si     0.556833333333     0.030000000000     0.750000000000     0          
O        O      0.554266666667     0.231066666667     0.959033333333     0          
O        O      0.627900000000     0.255800000000     0.989133333333     0          
T        Si     0.526833333333     0.223500000000     0.916666666667     0          
O        O      0.554266666667     0.323200000000     0.959033333333     0          
T        Si     0.583933333333     0.000000000000     0.666666666667     0          
O        O      0.564400000000     0.220933333333     0.792366666667     0          
T        Si     0.583933333333     0.250600000000     0.833333333333     0          
O        O      0.343466666667     0.231066666667     0.959033333333     0          
T        Si     0.333333333333     0.250600000000     0.666666666667     0          
O        O      0.445733333333     0.010133333333     0.792366666667     0          
T        Si     0.416066666667     0.000000000000     0.833333333333     0          
O        O      0.435600000000     0.112400000000     0.959033333333     0          
T        Si     0.416066666667     0.082733333333     0.666666666667     0          
O        O      0.656533333333     0.102266666667     0.792366666667     0          
T        Si     0.333333333333     0.082733333333     0.833333333333     0          
O        O      0.343466666667     0.112400000000     0.874300000000     0          
O        O      0.564400000000     0.010133333333     0.707633333333     0          
O        O      0.554266666667     0.231066666667     0.874300000000     0          
O        O      0.656533333333     0.220933333333     0.707633333333     0          
O        O      0.435600000000     0.323200000000     0.874300000000     0          
O        O      0.445733333333     0.102266666667     0.707633333333     0          
O        O      0.490366666667     0.411833333333     0.083333333333     0          
O        O      0.445733333333     0.343466666667     0.040966666667     0          
O        O      0.510633333333     0.354566666667     0.083333333333     0          
O        O      0.372100000000     0.627900000000     0.010866666667     0          
T        Si     0.473166666667     0.363333333333     0.083333333333     0          
T        Si     0.416066666667     0.333333333333     0.000000000000     0          
O        O      0.411866666667     0.490366666667     0.250000000000     0          
O        O      0.435600000000     0.445733333333     0.207633333333     0          
O        O      0.489400000000     0.510633333333     0.250000000000     0          
O        O      0.410866666667     0.372100000000     0.177533333333     0          
T        Si     0.443166666667     0.473166666667     0.250000000000     0          
T        Si     0.416066666667     0.416066666667     0.166666666667     0          
O        O      0.588166666667     0.411866666667     0.083333333333     0          
O        O      0.656533333333     0.435600000000     0.040966666667     0          
O        O      0.645433333333     0.489400000000     0.083333333333     0          
O        O      0.372100000000     0.410866666667     0.010866666667     0          
T        Si     0.636666666667     0.443166666667     0.083333333333     0          
T        Si     0.333333333333     0.416066666667     0.000000000000     0          
O        O      0.509633333333     0.588166666667     0.250000000000     0          
O        O      0.554266666667     0.656533333333     0.207633333333     0          
O        O      0.489366666667     0.645433333333     0.250000000000     0          
O        O      0.627900000000     0.372100000000     0.177533333333     0          
T        Si     0.526833333333     0.636666666667     0.250000000000     0          
T        Si     0.583933333333     0.333333333333     0.166666666667     0          
O        O      0.588133333333     0.509633333333     0.083333333333     0          
O        O      0.564400000000     0.554266666667     0.040966666667     0          
O        O      0.510600000000     0.489366666667     0.083333333333     0          
O        O      0.589133333333     0.627900000000     0.010866666667     0          
T        Si     0.556833333333     0.526833333333     0.083333333333     0          
T        Si     0.583933333333     0.583933333333     0.000000000000     0          
O        O      0.411833333333     0.588133333333     0.250000000000     0          
O        O      0.343466666667     0.564400000000     0.207633333333     0          
O        O      0.354566666667     0.510600000000     0.250000000000     0          
O        O      0.627900000000     0.589133333333     0.177533333333     0          
T        Si     0.363333333333     0.556833333333     0.250000000000     0          
T        Si     0.333333333333     0.583933333333     0.166666666667     0          
O        O      0.656533333333     0.554266666667     0.125700000000     0          
O        O      0.372100000000     0.627900000000     0.155800000000     0          
T        Si     0.636666666667     0.526833333333     0.083333333333     0          
O        O      0.435600000000     0.656533333333     0.292366666667     0          
O        O      0.410866666667     0.372100000000     0.322466666667     0          
T        Si     0.443166666667     0.636666666667     0.250000000000     0          
O        O      0.445733333333     0.435600000000     0.125700000000     0          
O        O      0.372100000000     0.410866666667     0.155800000000     0          
T        Si     0.473166666667     0.443166666667     0.083333333333     0          
O        O      0.343466666667     0.445733333333     0.292366666667     0          
O        O      0.627900000000     0.372100000000     0.322466666667     0          
T        Si     0.363333333333     0.473166666667     0.250000000000     0          
O        O      0.564400000000     0.343466666667     0.125700000000     0          
O        O      0.589133333333     0.627900000000     0.155800000000     0          
T        Si     0.556833333333     0.363333333333     0.083333333333     0          
O        O      0.554266666667     0.564400000000     0.292366666667     0          
O        O      0.627900000000     0.589133333333     0.322466666667     0          
T        Si     0.526833333333     0.556833333333     0.250000000000     0          
O        O      0.554266666667     0.656533333333     0.292366666667     0          
T        Si     0.583933333333     0.333333333333     0.000000000000     0          
O        O      0.564400000000     0.554266666667     0.125700000000     0          
T        Si     0.583933333333     0.583933333333     0.166666666667     0          
O        O      0.343466666667     0.564400000000     0.292366666667     0          
T        Si     0.333333333333     0.583933333333     0.000000000000     0          
O        O      0.445733333333     0.343466666667     0.125700000000     0          
T        Si     0.416066666667     0.333333333333     0.166666666667     0          
O        O      0.435600000000     0.445733333333     0.292366666667     0          
T        Si     0.416066666667     0.416066666667     0.000000000000     0          
O        O      0.656533333333     0.435600000000     0.125700000000     0          
T        Si     0.333333333333     0.416066666667     0.166666666667     0          
O        O      0.343466666667     0.445733333333     0.207633333333     0          
O        O      0.564400000000     0.343466666667     0.040966666667     0          
O        O      0.554266666667     0.564400000000     0.207633333333     0          
O        O      0.656533333333     0.554266666667     0.040966666667     0          
O        O      0.435600000000     0.656533333333     0.207633333333     0          
O        O      0.445733333333     0.435600000000     0.040966666667     0          
O        O      0.490366666667     0.411833333333     0.416666666667     0          
O        O      0.445733333333     0.343466666667     0.374300000000     0          
O        O      0.510633333333     0.354566666667     0.416666666667     0          
O        O      0.372100000000     0.627900000000     0.344200000000     0          
T        Si     0.473166666667     0.363333333333     0.416666666667     0          
T        Si     0.416066666667     0.333333333333     0.333333333333     0          
O        O      0.411866666667     0.490366666667     0.583333333333     0          
O        O      0.435600000000     0.445733333333     0.540966666667     0          
O        O      0.489400000000     0.510633333333     0.583333333333     0          
O        O      0.410866666667     0.372100000000     0.510866666667     0          
T        Si     0.443166666667     0.473166666667     0.583333333333     0          
T        Si     0.416066666667     0.416066666667     0.500000000000     0          
O        O      0.588166666667     0.411866666667     0.416666666667     0          
O        O      0.656533333333     0.435600000000     0.374300000000     0          
O        O      0.645433333333     0.489400000000     0.416666666667     0          
O        O      0.372100000000     0.410866666667     0.344200000000     0          
T        Si     0.636666666667     0.443166666667     0.416666666667     0          
T        Si     0.333333333333     0.416066666667     0.333333333333     0          
O        O      0.509633333333     0.588166666667     0.583333333333     0          
O        O      0.554266666667     0.656533333333     0.540966666667     0          
O        O      0.489366666667     0.645433333333     0.583333333333     0          
O        O      0.627900000000     0.372100000000     0.510866666667     0          
T        Si     0.526833333333     0.636666666667     0.583333333333     0          
T        Si     0.583933333333     0.333333333333     0.500000000000     0          
O        O      0.588133333333     0.509633333333     0.416666666667     0          
O        O      0.564400000000     0.554266666667     0.374300000000     0          
O        O      0.510600000000     0.489366666667     0.416666666667     0          
O        O      0.589133333333     0.627900000000     0.344200000000     0          
T        Si     0.556833333333     0.526833333333     0.416666666667     0          
T        Si     0.583933333333     0.583933333333     0.333333333333     0          
O        O      0.411833333333     0.588133333333     0.583333333333     0          
O        O      0.343466666667     0.564400000000     0.540966666667     0          
O        O      0.354566666667     0.510600000000     0.583333333333     0          
O        O      0.627900000000     0.589133333333     0.510866666667     0          
T        Si     0.363333333333     0.556833333333     0.583333333333     0          
T        Si     0.333333333333     0.583933333333     0.500000000000     0          
O        O      0.656533333333     0.554266666667     0.459033333333     0          
O        O      0.372100000000     0.627900000000     0.489133333333     0          
T        Si     0.636666666667     0.526833333333     0.416666666667     0          
O        O      0.435600000000     0.656533333333     0.625700000000     0          
O        O      0.410866666667     0.372100000000     0.655800000000     0          
T        Si     0.443166666667     0.636666666667     0.583333333333     0          
O        O      0.445733333333     0.435600000000     0.459033333333     0          
O        O      0.372100000000     0.410866666667     0.489133333333     0          
T        Si     0.473166666667     0.443166666667     0.416666666667     0          
O        O      0.343466666667     0.445733333333     0.625700000000     0          
O        O      0.627900000000     0.372100000000     0.655800000000     0          
T        Si     0.363333333333     0.473166666667     0.583333333333     0          
O        O      0.564400000000     0.343466666667     0.459033333333     0          
O        O      0.589133333333     0.627900000000     0.489133333333     0          
T        Si     0.556833333333     0.363333333333     0.416666666667     0          
O        O      0.554266666667     0.564400000000     0.625700000000     0          
O        O      0.627900000000     0.589133333333     0.655800000000     0          
T        Si     0.526833333333     0.556833333333     0.583333333333     0          
O        O      0.554266666667     0.656533333333     0.625700000000     0          
T        Si     0.583933333333     0.333333333333     0.333333333333     0          
O        O      0.564400000000     0.554266666667     0.459033333333     0          
T        Si     0.583933333333     0.583933333333     0.500000000000     0          
O        O      0.343466666667     0.564400000000     0.625700000000     0          
T        Si     0.333333333333     0.583933333333     0.333333333333     0          
O        O      0.445733333333     0.343466666667     0.459033333333     0          
T        Si     0.416066666667     0.333333333333     0.500000000000     0          
O        O      0.435600000000     0.445733333333     0.625700000000     0          
T        Si     0.416066666667     0.416066666667     0.333333333333     0          
O        O      0.656533333333     0.435600000000     0.459033333333     0          
T        Si     0.333333333333     0.416066666667     0.500000000000     0          
O        O      0.343466666667     0.445733333333     0.540966666667     0          
O        O      0.564400000000     0.343466666667     0.374300000000     0          
O        O      0.554266666667     0.564400000000     0.540966666667     0          
O        O      0.656533333333     0.554266666667     0.374300000000     0          
O        O      0.435600000000     0.656533333333     0.540966666667     0          
O        O      0.445733333333     0.435600000000     0.374300000000     0          
O        O      0.490366666667     0.411833333333     0.750000000000     0          
O        O      0.445733333333     0.343466666667     0.707633333333     0          
O        O      0.510633333333     0.354566666667     0.750000000000     0          
O        O      0.372100000000     0.627900000000     0.677533333333     0          
T        Si     0.473166666667     0.363333333333     0.750000000000     0          
T        Si     0.416066666667     0.333333333333     0.666666666667     0          
O        O      0.411866666667     0.490366666667     0.916666666667     0          
O        O      0.435600000000     0.445733333333     0.874300000000     0          
O        O      0.489400000000     0.510633333333     0.916666666667     0          
O        O      0.410866666667     0.372100000000     0.844200000000     0          
T        Si     0.443166666667     0.473166666667     0.916666666667     0          
T        Si     0.416066666667     0.416066666667     0.833333333333     0          
O        O      0.588166666667     0.411866666667     0.750000000000     0          
O        O      0.656533333333     0.435600000000     0.707633333333     0          
O        O      0.645433333333     0.489400000000     0.750000000000     0          
O        O      0.372100000000     0.410866666667     0.677533333333     0          
T        Si     0.636666666667     0.443166666667     0.750000000000     0          
T        Si     0.333333333333     0.416066666667     0.666666666667     0          
O        O      0.509633333333     0.588166666667     0.916666666667     0          
O        O      0.554266666667     0.656533333333     0.874300000000     0          
O        O      0.489366666667     0.645433333333     0.916666666667     0          
O        O      0.627900000000     0.372100000000     0.844200000000     0          
T        Si     0.526833333333     0.636666666667     0.916666666667     0          
T        Si     0.583933333333     0.333333333333     0.833333333333     0          
O        O      0.588133333333     0.509633333333     0.750000000000     0          
O        O      0.564400000000     0.554266666667     0.707633333333     0          
O        O      0.510600000000     0.489366666667     0.750000000000     0          
O        O      0.589133333333     0.627900000000     0.677533333333     0          
T        Si     0.556833333333     0.526833333333     0.750000000000     0          
T        Si     0.583933333333     0.583933333333     0.666666666667     0          
O        O      0.411833333333     0.588133333333     0.916666666667     0          
O        O      0.343466666667     0.564400000000     0.874300000000     0          
O        O      0.354566666667     0.510600000000     0.916666666667     0          
O        O      0.627900000000     0.589133333333     0.844200000000     0          
T        Si     0.363333333333     0.556833333333     0.916666666667     0          
T        Si     0.333333333333     0.583933333333     0.833333333333     0          
O        O      0.656533333333     0.554266666667     0.792366666667     0          
O        O      0.372100000000     0.627900000000     0.822466666667     0          
T        Si     0.636666666667     0.526833333333     0.750000000000     0          
O        O      0.435600000000     0.656533333333     0.959033333333     0          
O        O      0.410866666667     0.372100000000     0.989133333333     0          
T        Si     0.443166666667     0.636666666667     0.916666666667     0          
O        O      0.445733333333     0.435600000000     0.792366666667     0          
O        O      0.372100000000     0.410866666667     0.822466666667     0          
T        Si     0.473166666667     0.443166666667     0.750000000000     0          
O        O      0.343466666667     0.445733333333     0.959033333333     0          
O        O      0.627900000000     0.372100000000     0.989133333333     0          
T        Si     0.363333333333     0.473166666667     0.916666666667     0          
O        O      0.564400000000     0.343466666667     0.792366666667     0          
O        O      0.589133333333     0.627900000000     0.822466666667     0          
T        Si     0.556833333333     0.363333333333     0.750000000000     0          
O        O      0.554266666667     0.564400000000     0.959033333333     0          
O        O      0.627900000000     0.589133333333     0.989133333333     0          
T        Si     0.526833333333     0.556833333333     0.916666666667     0          
O        O      0.554266666667     0.656533333333     0.959033333333     0          
T        Si     0.583933333333     0.333333333333     0.666666666667     0          
O        O      0.564400000000     0.554266666667     0.792366666667     0          
T        Si     0.583933333333     0.583933333333     0.833333333333     0          
O        O      0.343466666667     0.564400000000     0.959033333333     0          
T        Si     0.333333333333     0.583933333333     0.666666666667     0          
O        O      0.445733333333     0.343466666667     0.792366666667     0          
T        Si     0.416066666667     0.333333333333     0.833333333333     0          
O        O      0.435600000000     0.445733333333     0.959033333333     0          
T        Si     0.416066666667     0.416066666667     0.666666666667     0          
O        O      0.656533333333     0.435600000000     0.792366666667     0          
T        Si     0.333333333333     0.416066666667     0.833333333333     0          
O        O      0.343466666667     0.445733333333     0.874300000000     0          
O        O      0.564400000000     0.343466666667     0.707633333333     0          
O        O      0.554266666667     0.564400000000     0.874300000000     0          
O        O      0.656533333333     0.554266666667     0.707633333333     0          
O        O      0.435600000000     0.656533333333     0.874300000000     0          
O        O      0.445733333333     0.435600000000     0.707633333333     0          
O        O      0.490366666667     0.745166666667     0.083333333333     0          
O        O      0.445733333333     0.676800000000     0.040966666667     0          
O        O      0.510633333333     0.687900000000     0.083333333333     0          
O        O      0.372100000000     0.961233333333     0.010866666667     0          
T        Si     0.473166666667     0.696666666667     0.083333333333     0          
T        Si     0.416066666667     0.666666666667     0.000000000000     0          
O        O      0.411866666667     0.823700000000     0.250000000000     0          
O        O      0.435600000000     0.779066666667     0.207633333333     0          
O        O      0.489400000000     0.843966666667     0.250000000000     0          
O        O      0.410866666667     0.705433333333     0.177533333333     0          
T        Si     0.443166666667     0.806500000000     0.250000000000     0          
T        Si     0.416066666667     0.749400000000     0.166666666667     0          
O        O      0.588166666667     0.745200000000     0.083333333333     0          
O        O      0.656533333333     0.768933333333     0.040966666667     0          
O        O      0.645433333333     0.822733333333     0.083333333333     0          
O        O      0.372100000000     0.744200000000     0.010866666667     0          
T        Si     0.636666666667     0.776500000000     0.083333333333     0          
T        Si     0.333333333333     0.749400000000     0.000000000000     0          
O        O      0.509633333333     0.921500000000     0.250000000000     0          
O        O      0.554266666667     0.989866666667     0.207633333333     0          
O        O      0.489366666667     0.978766666667     0.250000000000     0          
O        O      0.627900000000     0.705433333333     0.177533333333     0          
T        Si     0.526833333333     0.970000000000     0.250000000000     0          
T        Si     0.583933333333     0.666666666667     0.166666666667     0          
O        O      0.588133333333     0.842966666667     0.083333333333     0          
O        O      0.564400000000     0.887600000000     0.040966666667     0          
O        O      0.510600000000     0.822700000000     0.083333333333     0          
O        O      0.589133333333     0.961233333333     0.010866666667     0          
T        Si     0.556833333333     0.860166666667     0.083333333333     0          
T        Si     0.583933333333     0.917266666667     0.000000000000     0          
O        O      0.411833333333     0.921466666667     0.250000000000     0          
O        O      0.343466666667     0.897733333333     0.207633333333     0          
O        O      0.354566666667     0.843933333333     0.250000000000     0          
O        O      0.627900000000     0.922466666667     0.177533333333     0          
T        Si     0.363333333333     0.890166666667     0.250000000000     0          
T        Si     0.333333333333     0.917266666667     0.166666666667     0          
O        O      0.656533333333     0.887600000000     0.125700000000     0          
O        O      0.372100000000     0.961233333333     0.155800000000     0          
T        Si     0.636666666667     0.860166666667     0.083333333333     0          
O        O      0.435600000000     0.989866666667     0.292366666667     0          
O        O      0.410866666667     0.705433333333     0.322466666667     0          
T        Si     0.443166666667     0.970000000000     0.250000000000     0          
O        O      0.445733333333     0.768933333333     0.125700000000     0          
O        O      0.372100000000     0.744200000000     0.155800000000     0          
T        Si     0.473166666667     0.776500000000     0.083333333333     0          
O        O      0.343466666667     0.779066666667     0.292366666667     0          
O        O      0.627900000000     0.705433333333     0.322466666667     0          
T        Si     0.363333333333     0.806500000000     0.250000000000     0          
O        O      0.564400000000     0.676800000000     0.125700000000     0          
O        O      0.589133333333     0.961233333333     0.155800000000     0          
T        Si     0.556833333333     0.696666666667     0.083333333333     0          
O        O      0.554266666667     0.897733333333     0.292366666667     0          
O        O      0.627900000000     0.922466666667     0.322466666667     0          
T        Si     0.526833333333     0.890166666667     0.250000000000     0          
O        O      0.554266666667     0.989866666667     0.292366666667     0          
T        Si     0.583933333333     0.666666666667     0.000000000000     0          
O        O      0.564400000000     0.887600000000     0.125700000000     0          
T        Si     0.583933333333     0.917266666667     0.166666666667     0          
O        O      0.343466666667     0.897733333333     0.292366666667     0          
T        Si     0.333333333333     0.917266666667     0.000000000000     0          
O        O      0.445733333333     0.676800000000     0.125700000000     0          
T        Si     0.416066666667     0.666666666667     0.166666666667     0          
O        O      0.435600000000     0.779066666667     0.292366666667     0          
T        Si     0.416066666667     0.749400000000     0.000000000000     0          
O        O      0.656533333333     0.768933333333     0.125700000000     0          
T        Si     0.333333333333     0.749400000000     0.166666666667     0          
O        O      0.343466666667     0.779066666667     0.207633333333     0          
O        O      0.564400000000     0.676800000000     0.040966666667     0          
O        O      0.554266666667     0.897733333333     0.207633333333     0          
O        O      0.656533333333     0.887600000000     0.040966666667     0          
O        O      0.435600000000     0.989866666667     0.207633333333     0          
O        O      0.445733333333     0.768933333333     0.040966666667     0          
O        O      0.490366666667     0.745166666667     0.416666666667     0          
O        O      0.445733333333     0.676800000000     0.374300000000     0          
O        O      0.510633333333     0.687900000000     0.416666666667     0          
O        O      0.372100000000     0.961233333333     0.344200000000     0          
T        Si     0.473166666667     0.696666666667     0.416666666667     0          
T        Si     0.416066666667     0.666666666667     0.333333333333     0          
O        O      0.411866666667     0.823700000000     0.583333333333     0          
O        O      0.435600000000     0.779066666667     0.540966666667     0          
O        O      0.489400000000     0.843966666667     0.583333333333     0          
O        O      0.410866666667     0.705433333333     0.510866666667     0          
T        Si     0.443166666667     0.806500000000     0.583333333333     0          
T        Si     0.416066666667     0.749400000000     0.500000000000     0          
O        O      0.588166666667     0.745200000000     0.416666666667     0          
O        O      0.656533333333     0.768933333333     0.374300000000     0          
O        O      0.645433333333     0.822733333333     0.416666666667     0          
O        O      0.372100000000     0.744200000000     0.344200000000     0          
T        Si     0.636666666667     0.776500000000     0.416666666667     0          
T        Si     0.333333333333     0.749400000000     0.333333333333     0          
O        O      0.509633333333     0.921500000000     0.583333333333     0          
O        O      0.554266666667     0.989866666667     0.540966666667     0          
O        O      0.489366666667     0.978766666667     0.583333333333     0          
O        O      0.627900000000     0.705433333333     0.510866666667     0          
T        Si     0.526833333333     0.970000000000     0.583333333333     0          
T        Si     0.583933333333     0.666666666667     0.500000000000     0          
O        O      0.588133333333     0.842966666667     0.416666666667     0          
O        O      0.564400000000     0.887600000000     0.374300000000     0          
O        O      0.510600000000     0.822700000000     0.416666666667     0          
O        O      0.589133333333     0.961233333333     0.344200000000     0          
T        Si     0.556833333333     0.860166666667     0.416666666667     0          
T        Si     0.583933333333     0.917266666667     0.333333333333     0          
O        O      0.411833333333     0.921466666667     0.583333333333     0          
O        O      0.343466666667     0.897733333333     0.540966666667     0          
O        O      0.354566666667     0.843933333333     0.583333333333     0          
O        O      0.627900000000     0.922466666667     0.510866666667     0          
T        Si     0.363333333333     0.890166666667     0.583333333333     0          
T        Si     0.333333333333     0.917266666667     0.500000000000     0          
O        O      0.656533333333     0.887600000000     0.459033333333     0          
O        O      0.372100000000     0.961233333333     0.489133333333     0          
T        Si     0.636666666667     0.860166666667     0.416666666667     0          
O        O      0.435600000000     0.989866666667     0.625700000000     0          
O        O      0.410866666667     0.705433333333     0.655800000000     0          
T        Si     0.443166666667     0.970000000000     0.583333333333     0          
O        O      0.445733333333     0.768933333333     0.459033333333     0          
O        O      0.372100000000     0.744200000000     0.489133333333     0          
T        Si     0.473166666667     0.776500000000     0.416666666667     0          
O        O      0.343466666667     0.779066666667     0.625700000000     0          
O        O      0.627900000000     0.705433333333     0.655800000000     0          
T        Si     0.363333333333     0.806500000000     0.583333333333     0          
O        O      0.564400000000     0.676800000000     0.459033333333     0          
O        O      0.589133333333     0.961233333333     0.489133333333     0          
T        Si     0.556833333333     0.696666666667     0.416666666667     0          
O        O      0.554266666667     0.897733333333     0.625700000000     0          
O        O      0.627900000000     0.922466666667     0.655800000000     0          
T        Si     0.526833333333     0.890166666667     0.583333333333     0          
O        O      0.554266666667     0.989866666667     0.625700000000     0          
T        Si     0.583933333333     0.666666666667     0.333333333333     0          
O        O      0.564400000000     0.887600000000     0.459033333333     0          
T        Si     0.583933333333     0.917266666667     0.500000000000     0          
O        O      0.343466666667     0.897733333333     0.625700000000     0          
T        Si     0.333333333333     0.917266666667     0.333333333333     0          
O        O      0.445733333333     0.676800000000     0.459033333333     0          
T        Si     0.416066666667     0.666666666667     0.500000000000     0          
O        O      0.435600000000     0.779066666667     0.625700000000     0          
T        Si     0.416066666667     0.749400000000     0.333333333333     0          
O        O      0.656533333333     0.768933333333     0.459033333333     0          
T        Si     0.333333333333     0.749400000000     0.500000000000     0          
O        O      0.343466666667     0.779066666667     0.540966666667     0          
O        O      0.564400000000     0.676800000000     0.374300000000     0          
O        O      0.554266666667     0.897733333333     0.540966666667     0          
O        O      0.656533333333     0.887600000000     0.374300000000     0          
O        O      0.435600000000     0.989866666667     0.540966666667     0          
O        O      0.445733333333     0.768933333333     0.374300000000     0          
O        O      0.490366666667     0.745166666667     0.750000000000     0          
O        O      0.445733333333     0.676800000000     0.707633333333     0          
O        O      0.510633333333     0.687900000000     0.750000000000     0          
O        O      0.372100000000     0.961233333333     0.677533333333     0          
T        Si     0.473166666667     0.696666666667     0.750000000000     0          
T        Si     0.416066666667     0.666666666667     0.666666666667     0          
O        O      0.411866666667     0.823700000000     0.916666666667     0          
O        O      0.435600000000     0.779066666667     0.874300000000     0          
O        O      0.489400000000     0.843966666667     0.916666666667     0          
O        O      0.410866666667     0.705433333333     0.844200000000     0          
T        Si     0.443166666667     0.806500000000     0.916666666667     0          
T        Si     0.416066666667     0.749400000000     0.833333333333     0          
O        O      0.588166666667     0.745200000000     0.750000000000     0          
O        O      0.656533333333     0.768933333333     0.707633333333     0          
O        O      0.645433333333     0.822733333333     0.750000000000     0          
O        O      0.372100000000     0.744200000000     0.677533333333     0          
T        Si     0.636666666667     0.776500000000     0.750000000000     0          
T        Si     0.333333333333     0.749400000000     0.666666666667     0          
O        O      0.509633333333     0.921500000000     0.916666666667     0          
O        O      0.554266666667     0.989866666667     0.874300000000     0          
O        O      0.489366666667     0.978766666667     0.916666666667     0          
O        O      0.627900000000     0.705433333333     0.844200000000     0          
T        Si     0.526833333333     0.970000000000     0.916666666667     0          
T        Si     0.583933333333     0.666666666667     0.833333333333     0          
O        O      0.588133333333     0.842966666667     0.750000000000     0          
O        O      0.564400000000     0.887600000000     0.707633333333     0          
O        O      0.510600000000     0.822700000000     0.750000000000     0          
O        O      0.589133333333     0.961233333333     0.677533333333     0          
T        Si     0.556833333333     0.860166666667     0.750000000000     0          
T        Si     0.583933333333     0.917266666667     0.666666666667     0          
O        O      0.411833333333     0.921466666667     0.916666666667     0          
O        O      0.343466666667     0.897733333333     0.874300000000     0          
O        O      0.354566666667     0.843933333333     0.916666666667     0          
O        O      0.627900000000     0.922466666667     0.844200000000     0          
T        Si     0.363333333333     0.890166666667     0.916666666667     0          
T        Si     0.333333333333     0.917266666667     0.833333333333     0          
O        O      0.656533333333     0.887600000000     0.792366666667     0          
O        O      0.372100000000     0.961233333333     0.822466666667     0          
T        Si     0.636666666667     0.860166666667     0.750000000000     0          
O        O      0.435600000000     0.989866666667     0.959033333333     0          
O        O      0.410866666667     0.705433333333     0.989133333333     0          
T        Si     0.443166666667     0.970000000000     0.916666666667     0          
O        O      0.445733333333     0.768933333333     0.792366666667     0          
O        O      0.372100000000     0.744200000000     0.822466666667     0          
T        Si     0.473166666667     0.776500000000     0.750000000000     0          
O        O      0.343466666667     0.779066666667     0.959033333333     0          
O        O      0.627900000000     0.705433333333     0.989133333333     0          
T        Si     0.363333333333     0.806500000000     0.916666666667     0          
O        O      0.564400000000     0.676800000000     0.792366666667     0          
O        O      0.589133333333     0.961233333333     0.822466666667     0          
T        Si     0.556833333333     0.696666666667     0.750000000000     0          
O        O      0.554266666667     0.897733333333     0.959033333333     0          
O        O      0.627900000000     0.922466666667     0.989133333333     0          
T        Si     0.526833333333     0.890166666667     0.916666666667     0          
O        O      0.554266666667     0.989866666667     0.959033333333     0          
T        Si     0.583933333333     0.666666666667     0.666666666667     0          
O        O      0.564400000000     0.887600000000     0.792366666667     0          
T        Si     0.583933333333     0.917266666667     0.833333333333     0          
O        O      0.343466666667     0.897733333333     0.959033333333     0          
T        Si     0.333333333333     0.917266666667     0.666666666667     0          
O        O      0.445733333333     0.676800000000     0.792366666667     0          
T        Si     0.416066666667     0.666666666667     0.833333333333     0          
O        O      0.435600000000     0.779066666667     0.959033333333     0          
T        Si     0.416066666667     0.749400000000     0.666666666667     0          
O        O      0.656533333333     0.768933333333     0.792366666667     0          
T        Si     0.333333333333     0.749400000000     0.833333333333     0          
O        O      0.343466666667     0.779066666667     0.874300000000     0          
O        O      0.564400000000     0.676800000000     0.707633333333     0          
O        O      0.554266666667     0.897733333333     0.874300000000     0          
O        O      0.656533333333     0.887600000000     0.707633333333     0          
O        O      0.435600000000     0.989866666667     0.874300000000     0          
O        O      0.445733333333     0.768933333333     0.707633333333     0          
O        O      0.823700000000     0.078500000000     0.083333333333     0          
O        O      0.779066666667     0.010133333333     0.040966666667     0          
O        O      0.843966666667     0.021233333333     0.083333333333     0          
O        O      0.705433333333     0.294566666667     0.010866666667     0          
T        Si     0.806500000000     0.030000000000     0.083333333333     0          
T        Si     0.749400000000     0.000000000000     0.000000000000     0          
O        O      0.745200000000     0.157033333333     0.250000000000     0          
O        O      0.768933333333     0.112400000000     0.207633333333     0          
O        O      0.822733333333     0.177300000000     0.250000000000     0          
O        O      0.744200000000     0.038766666667     0.177533333333     0          
T        Si     0.776500000000     0.139833333333     0.250000000000     0          
T        Si     0.749400000000     0.082733333333     0.166666666667     0          
O        O      0.921500000000     0.078533333333     0.083333333333     0          
O        O      0.989866666667     0.102266666667     0.040966666667     0          
O        O      0.978766666667     0.156066666667     0.083333333333     0          
O        O      0.705433333333     0.077533333333     0.010866666667     0          
T        Si     0.970000000000     0.109833333333     0.083333333333     0          
T        Si     0.666666666667     0.082733333333     0.000000000000     0          
O        O      0.842966666667     0.254833333333     0.250000000000     0          
O        O      0.887600000000     0.323200000000     0.207633333333     0          
O        O      0.822700000000     0.312100000000     0.250000000000     0          
O        O      0.961233333333     0.038766666667     0.177533333333     0          
T        Si     0.860166666667     0.303333333333     0.250000000000     0          
T        Si     0.917266666667     0.000000000000     0.166666666667     0          
O        O      0.921466666667     0.176300000000     0.083333333333     0          
O        O      0.897733333333     0.220933333333     0.040966666667     0          
O        O      0.843933333333     0.156033333333     0.083333333333     0          
O        O      0.922466666667     0.294566666667     0.010866666667     0          
T        Si     0.890166666667     0.193500000000     0.083333333333     0          
T        Si     0.917266666667     0.250600000000     0.000000000000     0          
O        O      0.745166666667     0.254800000000     0.250000000000     0          
O        O      0.676800000000     0.231066666667     0.207633333333     0          
O        O      0.687900000000     0.177266666667     0.250000000000     0          
O        O      0.961233333333     0.255800000000     0.177533333333     0          
T        Si     0.696666666667     0.223500000000     0.250000000000     0          
T        Si     0.666666666667     0.250600000000     0.166666666667     0          
O        O      0.989866666667     0.220933333333     0.125700000000     0          
O        O      0.705433333333     0.294566666667     0.155800000000     0          
T        Si     0.970000000000     0.193500000000     0.083333333333     0          
O        O      0.768933333333     0.323200000000     0.292366666667     0          
O        O      0.744200000000     0.038766666667     0.322466666667     0          
T        Si     0.776500000000     0.303333333333     0.250000000000     0          
O        O      0.779066666667     0.102266666667     0.125700000000     0          
O        O      0.705433333333     0.077533333333     0.155800000000     0          
T        Si     0.806500000000     0.109833333333     0.083333333333     0          
O        O      0.676800000000     0.112400000000     0.292366666667     0          
O        O      0.961233333333     0.038766666667     0.322466666667     0          
T        Si     0.696666666667     0.139833333333     0.250000000000     0          
O        O      0.897733333333     0.010133333333     0.125700000000     0          
O        O      0.922466666667     0.294566666667     0.155800000000     0          
T        Si     0.890166666667     0.030000000000     0.083333333333     0          
O        O      0.887600000000     0.231066666667     0.292366666667     0          
O        O      0.961233333333     0.255800000000     0.322466666667     0          
T        Si     0.860166666667     0.223500000000     0.250000000000     0          
O        O      0.887600000000     0.323200000000     0.292366666667     0          
T        Si     0.917266666667     0.000000000000     0.000000000000     0          
O        O      0.897733333333     0.220933333333     0.125700000000     0          
T        Si     0.917266666667     0.250600000000     0.166666666667     0          
O        O      0.676800000000     0.231066666667     0.292366666667     0          
T        Si     0.666666666667     0.250600000000     0.000000000000     0          
O        O      0.779066666667     0.010133333333     0.125700000000     0          
T        Si     0.749400000000     0.000000000000     0.166666666667     0          
O        O      0.768933333333     0.112400000000     0.292366666667     0          
T        Si     0.749400000000     0.082733333333     0.000000000000     0          
O        O      0.989866666667     0.102266666667     0.125700000000     0          
T        Si     0.666666666667     0.082733333333     0.166666666667     0          
O        O      0.676800000000     0.112400000000     0.207633333333     0          
O        O      0.897733333333     0.010133333333     0.040966666667     0          
O        O      0.887600000000     0.231066666667     0.207633333333     0          
O        O      0.989866666667     0.220933333333     0.040966666667     0          
O        O      0.768933333333     0.323200000000     0.207633333333     0          
O        O      0.779066666667     0.102266666667     0.040966666667     0          
O        O      0.823700000000     0.078500000000     0.416666666667     0          
O        O      0.779066666667     0.010133333333     0.374300000000     0          
O        O      0.843966666667     0.021233333333     0.416666666667     0          
O        O      0.705433333333     0.294566666667     0.344200000000     0          
T        Si     0.806500000000     0.030000000000     0.416666666667     0          
T        Si     0.749400000000     0.000000000000     0.333333333333     0          
O        O      0.745200000000     0.157033333333     0.583333333333     0          
O        O      0.768933333333     0.112400000000     0.540966666667     0          
O        O      0.822733333333     0.177300000000     0.583333333333     0          
O        O      0.744200000000     0.038766666667     0.510866666667     0          
T        Si     0.776500000000     0.139833333333     0.583333333333     0          
T        Si     0.749400000000     0.082733333333     0.500000000000     0          
O        O      0.921500000000     0.078533333333     0.416666666667     0          
O        O      0.989866666667     0.102266666667     0.374300000000     0          
O        O      0.978766666667     0.156066666667     0.416666666667     0          
O        O      0.705433333333     0.077533333333     0.344200000000     0          
T        Si     0.970000000000     0.109833333333     0.416666666667     0          
T        Si     0.666666666667     0.082733333333     0.333333333333     0          
O        O      0.842966666667     0.254833333333     0.583333333333     0          
O        O      0.887600000000     0.323200000000     0.540966666667     0          
O        O      0.822700000000     0.312100000000     0.583333333333     0          
O        O      0.961233333333     0.038766666667     0.510866666667     0          
T        Si     0.860166666667     0.303333333333     0.583333333333     0          
T        Si     0.917266666667     0.000000000000     0.500000000000     0          
O        O      0.921466666667     0.176300000000     0.416666666667     0          
O        O      0.897733333333     0.220933333333     0.374300000000     0          
O        O      0.843933333333     0.156033333333     0.416666666667     0          
O        O      0.922466666667     0.294566666667     0.344200000000     0          
T        Si     0.890166666667     0.193500000000     0.416666666667     0          
T        Si     0.917266666667     0.250600000000     0.333333333333     0          
O        O      0.745166666667     0.254800000000     0.583333333333     0          
O        O      0.676800000000     0.231066666667     0.540966666667     0          
O        O      0.687900000000     0.177266666667     0.583333333333     0          
O        O      0.961233333333     0.255800000000     0.510866666667     0          
T        Si     0.696666666667     0.223500000000     0.583333333333     0          
T        Si     0.666666666667     0.250600000000     0.500000000000     0          
O        O      0.989866666667     0.220933333333     0.459033333333     0          
O        O      0.705433333333     0.294566666667     0.489133333333     0          
T        Si     0.970000000000     0.193500000000     0.416666666667     0          
O        O      0.768933333333     0.323200000000     0.625700000000     0          
O        O      0.744200000000     0.038766666667     0.655800000000     0          
T        Si     0.776500000000     0.303333333333     0.583333333333     0          
O        O      0.779066666667     0.102266666667     0.459033333333     0          
O        O      0.705433333333     0.077533333333     0.489133333333     0          
T        Si     0.806500000000     0.109833333333     0.416666666667     0          
O        O      0.676800000000     0.112400000000     0.625700000000     0          
O        O      0.961233333333     0.038766666667     0.655800000000     0          
T        Si     0.696666666667     0.139833333333     0.583333333333     0          
O        O      0.897733333333     0.010133333333     0.459033333333     0          
O        O      0.922466666667     0.294566666667     0.489133333333     0          
T        Si     0.890166666667     0.030000000000     0.416666666667     0          
O        O      0.887600000000     0.231066666667     0.625700000000     0          
O        O      0.961233333333     0.255800000000     0.655800000000     0          
T        Si     0.860166666667     0.223500000000     0.583333333333     0          
O        O      0.887600000000     0.323200000000     0.625700000000     0          
T        Si     0.917266666667     0.000000000000     0.333333333333     0          
O        O      0.897733333333     0.220933333333     0.459033333333     0          
T        Si     0.917266666667     0.250600000000     0.500000000000     0          
O        O      0.676800000000     0.231066666667     0.625700000000     0          
T        Si     0.666666666667     0.250600000000     0.333333333333     0          
O        O      0.779066666667     0.010133333333     0.459033333333     0          
T        Si     0.749400000000     0.000000000000     0.500000000000     0          
O        O      0.768933333333     0.112400000000     0.625700000000     0          
T        Si     0.749400000000     0.082733333333     0.333333333333     0          
O        O      0.989866666667     0.102266666667     0.459033333333     0          
T        Si     0.666666666667     0.082733333333     0.500000000000     0          
O        O      0.676800000000     0.112400000000     0.540966666667     0          
O        O      0.897733333333     0.010133333333     0.374300000000     0          
O        O      0.887600000000     0.231066666667     0.540966666667     0          
O        O      0.989866666667     0.220933333333     0.374300000000     0          
O        O      0.768933333333     0.323200000000     0.540966666667     0          
O        O      0.779066666667     0.102266666667     0.374300000000     0          
O        O      0.823700000000     0.078500000000     0.750000000000     0          
O        O      0.779066666667     0.010133333333     0.707633333333     0          
O        O      0.843966666667     0.021233333333     0.750000000000     0          
O        O      0.705433333333     0.294566666667     0.677533333333     0          
T        Si     0.806500000000     0.030000000000     0.750000000000     0          
T        Si     0.749400000000     0.000000000000     0.666666666667     0          
O        O      0.745200000000     0.157033333333     0.916666666667     0          
O        O      0.768933333333     0.112400000000     0.874300000000     0          
O        O      0.822733333333     0.177300000000     0.916666666667     0          
O        O      0.744200000000     0.038766666667     0.844200000000     0          
T        Si     0.776500000000     0.139833333333     0.916666666667     0          
T        Si     0.749400000000     0.082733333333     0.833333333333     0          
O        O      0.921500000000     0.078533333333     0.750000000000     0          
O        O      0.989866666667     0.102266666667     0.707633333333     0          
O        O      0.978766666667     0.156066666667     0.750000000000     0          
O        O      0.705433333333     0.077533333333     0.677533333333     0          
T        Si     0.970000000000     0.109833333333     0.750000000000     0          
T        Si     0.666666666667     0.082733333333     0.666666666667     0          
O        O      0.842966666667     0.254833333333     0.916666666667     0          
O        O      0.887600000000     0.323200000000     0.874300000000     0          
O        O      0.822700000000     0.312100000000     0.916666666667     0          
O        O      0.961233333333     0.038766666667     0.844200000000     0          
T        Si     0.860166666667     0.303333333333     0.916666666667     0          
T        Si     0.917266666667     0.000000000000     0.833333333333     0          
O        O      0.921466666667     0.176300000000     0.750000000000     0          
O        O      0.897733333333     0.220933333333     0.707633333333     0          
O        O      0.843933333333     0.156033333333     0.750000000000     0          
O        O      0.922466666667     0.294566666667     0.677533333333     0          
T        Si     0.890166666667     0.193500000000     0.750000000000     0          
T        Si     0.917266666667     0.250600000000     0.666666666667     0          
O        O      0.745166666667     0.254800000000     0.916666666667     0          
O        O      0.676800000000     0.231066666667     0.874300000000     0          
O        O      0.687900000000     0.177266666667     0.916666666667     0          
O        O      0.961233333333     0.255800000000     0.844200000000     0          
T        Si     0.696666666667     0.223500000000     0.916666666667     0          
T        Si     0.666666666667     0.250600000000     0.833333333333     0          
O        O      0.989866666667     0.220933333333     0.792366666667     0          
O        O      0.705433333333     0.294566666667     0.822466666667     0          
T        Si     0.970000000000     0.193500000000     0.750000000000     0          
O        O      0.768933333333     0.323200000000     0.959033333333     0          
O        O      0.744200000000     0.038766666667     0.989133333333     0          
T        Si     0.776500000000     0.303333333333     0.916666666667     0          
O        O      0.779066666667     0.102266666667     0.792366666667     0          
O        O      0.705433333333     0.077533333333     0.822466666667     0          
T        Si     0.806500000000     0.109833333333     0.750000000000     0          
O        O      0.676800000000     0.112400000000     0.959033333333     0          
O        O      0.961233333333     0.038766666667     0.989133333333     0          
T        Si     0.696666666667     0.139833333333     0.916666666667     0          
O        O      0.897733333333     0.010133333333     0.792366666667     0          
O        O      0.922466666667     0.294566666667     0.822466666667     0          
T        Si     0.890166666667     0.030000000000     0.750000000000     0          
O        O      0.887600000000     0.231066666667     0.959033333333     0          
O        O      0.961233333333     0.255800000000     0.989133333333     0          
T        Si     0.860166666667     0.223500000000     0.916666666667     0          
O        O      0.887600000000     0.323200000000     0.959033333333     0          
T        Si     0.917266666667     0.000000000000     0.666666666667     0          
O        O      0.897733333333     0.220933333333     0.792366666667     0          
T        Si     0.917266666667     0.250600000000     0.833333333333     0          
O        O      0.676800000000     0.231066666667     0.959033333333     0          
T        Si     0.666666666667     0.250600000000     0.666666666667     0          
O        O      0.779066666667     0.010133333333     0.792366666667     0          
T        Si     0.749400000000     0.000000000000     0.833333333333     0          
O        O      0.768933333333     0.112400000000     0.959033333333     0          
T        Si     0.749400000000     0.082733333333     0.666666666667     0          
O        O      0.989866666667     0.102266666667     0.792366666667     0          
T        Si     0.666666666667     0.082733333333     0.833333333333     0          
O        O      0.676800000000     0.112400000000     0.874300000000     0          
O        O      0.897733333333     0.010133333333     0.707633333333     0          
O        O      0.887600000000     0.231066666667     0.874300000000     0          
O        O      0.989866666667     0.220933333333     0.707633333333     0          
O        O      0.768933333333     0.323200000000     0.874300000000     0          
O        O      0.779066666667     0.102266666667     0.707633333333     0          
O        O      0.823700000000     0.411833333333     0.083333333333     0          
O        O      0.779066666667     0.343466666667     0.040966666667     0          
O        O      0.843966666667     0.354566666667     0.083333333333     0          
O        O      0.705433333333     0.627900000000     0.010866666667     0          
T        Si     0.806500000000     0.363333333333     0.083333333333     0          
T        Si     0.749400000000     0.333333333333     0.000000000000     0          
O        O      0.745200000000     0.490366666667     0.250000000000     0          
O        O      0.768933333333     0.445733333333     0.207633333333     0          
O        O      0.822733333333     0.510633333333     0.250000000000     0          
O        O      0.744200000000     0.372100000000     0.177533333333     0          
T        Si     0.776500000000     0.473166666667     0.250000000000     0          
T        Si     0.749400000000     0.416066666667     0.166666666667     0          
O        O      0.921500000000     0.411866666667     0.083333333333     0          
O        O      0.989866666667     0.435600000000     0.040966666667     0          
O        O      0.978766666667     0.489400000000     0.083333333333     0          
O        O      0.705433333333     0.410866666667     0.010866666667     0          
T        Si     0.970000000000     0.443166666667     0.083333333333     0          
T        Si     0.666666666667     0.416066666667     0.000000000000     0          
O        O      0.842966666667     0.588166666667     0.250000000000     0          
O        O      0.887600000000     0.656533333333     0.207633333333     0          
O        O      0.822700000000     0.645433333333     0.250000000000     0          
O        O      0.961233333333     0.372100000000     0.177533333333     0          
T        Si     0.860166666667     0.636666666667     0.250000000000     0          
T        Si     0.917266666667     0.333333333333     0.166666666667     0          
O        O      0.921466666667     0.509633333333     0.083333333333     0          
O        O      0.897733333333     0.554266666667     0.040966666667     0          
O        O      0.843933333333     0.489366666667     0.083333333333     0          
O        O      0.922466666667     0.627900000000     0.010866666667     0          
T        Si     0.890166666667     0.526833333333     0.083333333333     0          
T        Si     0.917266666667     0.583933333333     0.000000000000     0          
O        O      0.745166666667     0.588133333333     0.250000000000     0          
O        O      0.676800000000     0.564400000000     0.207633333333     0          
O        O      0.687900000000     0.510600000000     0.250000000000     0          
O        O      0.961233333333     0.589133333333     0.177533333333     0          
T        Si     0.696666666667     0.556833333333     0.250000000000     0          
T        Si     0.666666666667     0.583933333333     0.166666666667     0          
O        O      0.989866666667     0.554266666667     0.125700000000     0          
O        O      0.705433333333     0.627900000000     0.155800000000     0          
T        Si     0.970000000000     0.526833333333     0.083333333333     0          
O        O      0.768933333333     0.656533333333     0.292366666667     0          
O        O      0.744200000000     0.372100000000     0.322466666667     0          
T        Si     0.776500000000     0.636666666667     0.250000000000     0          
O        O      0.779066666667     0.435600000000     0.125700000000     0          
O        O      0.705433333333     0.410866666667     0.155800000000     0          
T        Si     0.806500000000     0.443166666667     0.083333333333     0          
O        O      0.676800000000     0.445733333333     0.292366666667     0          
O        O      0.961233333333     0.372100000000     0.322466666667     0          
T        Si     0.696666666667     0.473166666667     0.250000000000     0          
O        O      0.897733333333     0.343466666667     0.125700000000     0          
O        O      0.922466666667     0.627900000000     0.155800000000     0          
T        Si     0.890166666667     0.363333333333     0.083333333333     0          
O        O      0.887600000000     0.564400000000     0.292366666667     0          
O        O      0.961233333333     0.589133333333     0.322466666667     0          
T        Si     0.860166666667     0.556833333333     0.250000000000     0          
O        O      0.887600000000     0.656533333333     0.292366666667     0          
T        Si     0.917266666667     0.333333333333     0.000000000000     0          
O        O      0.897733333333     0.554266666667     0.125700000000     0          
T        Si     0.917266666667     0.583933333333     0.166666666667     0          
O        O      0.676800000000     0.564400000000     0.292366666667     0          
T        Si     0.666666666667     0.583933333333     0.000000000000     0          
O        O      0.779066666667     0.343466666667     0.125700000000     0          
T        Si     0.749400000000     0.333333333333     0.166666666667     0          
O        O      0.768933333333     0.445733333333     0.292366666667     0          
T        Si     0.749400000000     0.416066666667     0.000000000000     0          
O        O      0.989866666667     0.435600000000     0.125700000000     0          
T        Si     0.666666666667     0.416066666667     0.166666666667     0          
O        O      0.676800000000     0.445733333333     0.207633333333     0          
O        O      0.897733333333     0.343466666667     0.040966666667     0          
O        O      0.887600000000     0.564400000000     0.207633333333     0          
O        O      0.989866666667     0.554266666667     0.040966666667     0          
O        O      0.768933333333     0.656533333333     0.207633333333     0          
O        O      0.779066666667     0.435600000000     0.040966666667     0          
O        O      0.823700000000     0.411833333333     0.416666666667     0          
O        O      0.779066666667     0.343466666667     0.374300000000     0          
O        O      0.843966666667     0.354566666667     0.416666666667     0          
O        O      0.705433333333     0.627900000000     0.344200000000     0          
T        Si     0.806500000000     0.363333333333     0.416666666667     0          
T        Si     0.749400000000     0.333333333333     0.333333333333     0          
O        O      0.745200000000     0.490366666667     0.583333333333     0          
O        O      0.768933333333     0.445733333333     0.540966666667     0          
O        O      0.822733333333     0.510633333333     0.583333333333     0          
O        O      0.744200000000     0.372100000000     0.510866666667     0          
T        Si     0.776500000000     0.473166666667     0.583333333333     0          
T        Si     0.749400000000     0.416066666667     0.500000000000     0          
O        O      0.921500000000     0.411866666667     0.416666666667     0          
O        O      0.989866666667     0.435600000000     0.374300000000     0          
O        O      0.978766666667     0.489400000000     0.416666666667     0          
O        O      0.705433333333     0.410866666667     0.344200000000     0          
T        Si     0.970000000000     0.443166666667     0.416666666667     0          
T        Si     0.666666666667     0.416066666667     0.333333333333     0          
O        O      0.842966666667     0.588166666667     0.583333333333     0          
O        O      0.887600000000     0.656533333333     0.540966666667     0          
O        O      0.822700000000     0.645433333333     0.583333333333     0          
O        O      0.961233333333     0.372100000000     0.510866666667     0          
T        Si     0.860166666667     0.636666666667     0.583333333333     0          
T        Si     0.917266666667     0.333333333333     0.500000000000     0          
O        O      0.921466666667     0.509633333333     0.416666666667     0          
O        O      0.897733333333     0.554266666667     0.374300000000     0          
O        O      0.843933333333     0.489366666667     0.416666666667     0          
O        O      0.922466666667     0.627900000000     0.344200000000     0          
T        Si     0.890166666667     0.526833333333     0.416666666667     0          
T        Si     0.917266666667     0.583933333333     0.333333333333     0          
O        O      0.745166666667     0.588133333333     0.583333333333     0          
O        O      0.676800000000     0.564400000000     0.540966666667     0          
O        O      0.687900000000     0.510600000000     0.583333333333     0          
O        O      0.961233333333     0.589133333333     0.510866666667     0          
T        Si     0.696666666667     0.556833333333     0.583333333333     0          
T        Si     0.666666666667     0.583933333333     0.500000000000     0          
O        O      0.989866666667     0.554266666667     0.459033333333     0          
O        O      0.705433333333     0.627900000000     0.489133333333     0          
T        Si     0.970000000000     0.526833333333     0.416666666667     0          
O        O      0.768933333333     0.656533333333     0.625700000000     0          
O        O      0.744200000000     0.372100000000     0.655800000000     0          
T        Si     0.776500000000     0.636666666667     0.583333333333     0          
O        O      0.779066666667     0.435600000000     0.459033333333     0          
O        O      0.705433333333     0.410866666667     0.489133333333     0          
T        Si     0.806500000000     0.443166666667     0.416666666667     0          
O        O      0.676800000000     0.445733333333     0.625700000000     0          
O        O      0.961233333333     0.372100000000     0.655800000000     0          
T        Si     0.696666666667     0.473166666667     0.583333333333     0          
O        O      0.897733333333     0.343466666667     0.459033333333     0          
O        O      0.922466666667     0.627900000000     0.489133333333     0          
T        Si     0.890166666667     0.363333333333     0.416666666667     0          
O        O      0.887600000000     0.564400000000     0.625700000000     0          
O        O      0.961233333333     0.589133333333     0.655800000000     0          
T        Si     0.860166666667     0.556833333333     0.583333333333     0          
O        O      0.887600000000     0.656533333333     0.625700000000     0          
T        Si     0.917266666667     0.333333333333     0.333333333333     0          
O        O      0.897733333333     0.554266666667     0.459033333333     0          
T        Si     0.917266666667     0.583933333333     0.500000000000     0          
O        O      0.676800000000     0.564400000000     0.625700000000     0          
T        Si     0.666666666667     0.583933333333     0.333333333333     0          
O        O      0.779066666667     0.343466666667     0.459033333333     0          
T        Si     0.749400000000     0.333333333333     0.500000000000     0          
O        O      0.768933333333     0.445733333333     0.625700000000     0          
T        Si     0.749400000000     0.416066666667     0.333333333333     0          
O        O      0.989866666667     0.435600000000     0.459033333333     0          
T        Si     0.666666666667     0.416066666667     0.500000000000     0          
O        O      0.676800000000     0.445733333333     0.540966666667     0          
O        O      0.897733333333     0.343466666667     0.374300000000     0          
O        O      0.887600000000     0.564400000000     0.540966666667     0          
O        O      0.989866666667     0.554266666667     0.374300000000     0          
O        O      0.768933333333     0.656533333333     0.540966666667     0          
O        O      0.779066666667     0.435600000000     0.374300000000     0          
O        O      0.823700000000     0.411833333333     0.750000000000     0          
O        O      0.779066666667     0.343466666667     0.707633333333     0          
O        O      0.843966666667     0.354566666667     0.750000000000     0          
O        O      0.705433333333     0.627900000000     0.677533333333     0          
T        Si     0.806500000000     0.363333333333     0.750000000000     0          
T        Si     0.749400000000     0.333333333333     0.666666666667     0          
O        O      0.745200000000     0.490366666667     0.916666666667     0          
O        O      0.768933333333     0.445733333333     0.874300000000     0          
O        O      0.822733333333     0.510633333333     0.916666666667     0          
O        O      0.744200000000     0.372100000000     0.844200000000     0          
T        Si     0.776500000000     0.473166666667     0.916666666667     0          
T        Si     0.749400000000     0.416066666667     0.833333333333     0          
O        O      0.921500000000     0.411866666667     0.750000000000     0          
O        O      0.989866666667     0.435600000000     0.707633333333     0          
O        O      0.978766666667     0.489400000000     0.750000000000     0          
O        O      0.705433333333     0.410866666667     0.677533333333     0          
T        Si     0.970000000000     0.443166666667     0.750000000000     0          
T        Si     0.666666666667     0.416066666667     0.666666666667     0          
O        O      0.842966666667     0.588166666667     0.916666666667     0          
O        O      0.887600000000     0.656533333333     0.874300000000     0          
O        O      0.822700000000     0.645433333333     0.916666666667     0          
O        O      0.961233333333     0.372100000000     0.844200000000     0          
T        Si     0.860166666667     0.636666666667     0.916666666667     0          
T        Si     0.917266666667     0.333333333333     0.833333333333     0          
O        O      0.921466666667     0.509633333333     0.750000000000     0          
O        O      0.897733333333     0.554266666667     0.707633333333     0          
O        O      0.843933333333     0.489366666667     0.750000000000     0          
O        O      0.922466666667     0.627900000000     0.677533333333     0          
T        Si     0.890166666667     0.526833333333     0.750000000000     0          
T        Si     0.917266666667     0.583933333333     0.666666666667     0          
O        O      0.745166666667     0.588133333333     0.916666666667     0          
O        O      0.676800000000     0.564400000000     0.874300000000     0          
O        O      0.687900000000     0.510600000000     0.916666666667     0          
O        O      0.961233333333     0.589133333333     0.844200000000     0          
T        Si     0.696666666667     0.556833333333     0.916666666667     0          
T        Si     0.666666666667     0.583933333333     0.833333333333     0          
O        O      0.989866666667     0.554266666667     0.792366666667     0          
O        O      0.705433333333     0.627900000000     0.822466666667     0          
T        Si     0.970000000000     0.526833333333     0.750000000000     0          
O        O      0.768933333333     0.656533333333     0.959033333333     0          
O        O      0.744200000000     0.372100000000     0.989133333333     0          
T        Si     0.776500000000     0.636666666667     0.916666666667     0          
O        O      0.779066666667     0.435600000000     0.792366666667     0          
O        O      0.705433333333     0.410866666667     0.822466666667     0          
T        Si     0.806500000000     0.443166666667     0.750000000000     0          
O        O      0.676800000000     0.445733333333     0.959033333333     0          
O        O      0.961233333333     0.372100000000     0.989133333333     0          
T        Si     0.696666666667     0.473166666667     0.916666666667     0          
O        O      0.897733333333     0.343466666667     0.792366666667     0          
O        O      0.922466666667     0.627900000000     0.822466666667     0          
T        Si     0.890166666667     0.363333333333     0.750000000000     0          
O        O      0.887600000000     0.564400000000     0.959033333333     0          
O        O      0.961233333333     0.589133333333     0.989133333333     0          
T        Si     0.860166666667     0.556833333333     0.916666666667     0          
O        O      0.887600000000     0.656533333333     0.959033333333     0          
T        Si     0.917266666667     0.333333333333     0.666666666667     0          
O        O      0.897733333333     0.554266666667     0.792366666667     0          
T        Si     0.917266666667     0.583933333333     0.833333333333     0          
O        O      0.676800000000     0.564400000000     0.959033333333     0          
T        Si     0.666666666667     0.583933333333     0.666666666667     0          
O        O      0.779066666667     0.343466666667     0.792366666667     0          
T        Si     0.749400000000     0.333333333333     0.833333333333     0          
O        O      0.768933333333     0.445733333333     0.959033333333     0          
T        Si     0.749400000000     0.416066666667     0.666666666667     0          
O        O      0.989866666667     0.435600000000     0.792366666667     0          
T        Si     0.666666666667     0.416066666667     0.833333333333     0          
O        O      0.676800000000     0.445733333333     0.874300000000     0          
O        O      0.897733333333     0.343466666667     0.707633333333     0          
O        O      0.887600000000     0.564400000000     0.874300000000     0          
O        O      0.989866666667     0.554266666667     0.707633333333     0          
O        O      0.768933333333     0.656533333333     0.874300000000     0          
O        O      0.779066666667     0.435600000000     0.707633333333     0          
O        O      0.823700000000     0.745166666667     0.083333333333     0          
O        O      0.779066666667     0.676800000000     0.040966666667     0          
O        O      0.843966666667     0.687900000000     0.083333333333     0          
O        O      0.705433333333     0.961233333333     0.010866666667     0          
T        Si     0.806500000000     0.696666666667     0.083333333333     0          
T        Si     0.749400000000     0.666666666667     0.000000000000     0          
O        O      0.745200000000     0.823700000000     0.250000000000     0          
O        O      0.768933333333     0.779066666667     0.207633333333     0          
O        O      0.822733333333     0.843966666667     0.250000000000     0          
O        O      0.744200000000     0.705433333333     0.177533333333     0          
T        Si     0.776500000000     0.806500000000     0.250000000000     0          
T        Si     0.749400000000     0.749400000000     0.166666666667     0          
O        O      0.921500000000     0.745200000000     0.083333333333     0          
O        O      0.989866666667     0.768933333333     0.040966666667     0          
O        O      0.978766666667     0.822733333333     0.083333333333     0          
O        O      0.705433333333     0.744200000000     0.010866666667     0          
T        Si     0.970000000000     0.776500000000     0.083333333333     0          
T        Si     0.666666666667     0.749400000000     0.000000000000     0          
O        O      0.842966666667     0.921500000000     0.250000000000     0          
O        O      0.887600000000     0.989866666667     0.207633333333     0          
O        O      0.822700000000     0.978766666667     0.250000000000     0          
O        O      0.961233333333     0.705433333333     0.177533333333     0          
T        Si     0.860166666667     0.970000000000     0.250000000000     0          
T        Si     0.917266666667     0.666666666667     0.166666666667     0          
O        O      0.921466666667     0.842966666667     0.083333333333     0          
O        O      0.897733333333     0.887600000000     0.040966666667     0          
O        O      0.843933333333     0.822700000000     0.083333333333     0          
O        O      0.922466666667     0.961233333333     0.010866666667     0          
T        Si     0.890166666667     0.860166666667     0.083333333333     0          
T        Si     0.917266666667     0.917266666667     0.000000000000     0          
O        O      0.745166666667     0.921466666667     0.250000000000     0          
O        O      0.676800000000     0.897733333333     0.207633333333     0          
O        O      0.687900000000     0.843933333333     0.250000000000     0          
O        O      0.961233333333     0.922466666667     0.177533333333     0          
T        Si     0.696666666667     0.890166666667     0.250000000000     0          
T        Si     0.666666666667     0.917266666667     0.166666666667     0          
O        O      0.989866666667     0.887600000000     0.125700000000     0          
O        O      0.705433333333     0.961233333333     0.155800000000     0          
T        Si     0.970000000000     0.860166666667     0.083333333333     0          
O        O      0.768933333333     0.989866666667     0.292366666667     0          
O        O      0.744200000000     0.705433333333     0.322466666667     0          
T        Si     0.776500000000     0.970000000000     0.250000000000     0          
O        O      0.779066666667     0.768933333333     0.125700000000     0          
O        O      0.705433333333     0.744200000000     0.155800000000     0          
T        Si     0.806500000000     0.776500000000     0.083333333333     0          
O        O      0.676800000000     0.779066666667     0.292366666667     0          
O        O      0.961233333333     0.705433333333     0.322466666667     0          
T        Si     0.696666666667     0.806500000000     0.250000000000     0          
O        O      0.897733333333     0.676800000000     0.125700000000     0          
O        O      0.922466666667     0.961233333333     0.155800000000     0          
T        Si     0.890166666667     0.696666666667     0.083333333333     0          
O        O      0.887600000000     0.897733333333     0.292366666667     0          
O        O      0.961233333333     0.922466666667     0.322466666667     0          
T        Si     0.860166666667     0.890166666667     0.250000000000     0          
O        O      0.887600000000     0.989866666667     0.292366666667     0          
T        Si     0.917266666667     0.666666666667     0.000000000000     0          
O        O      0.897733333333     0.887600000000     0.125700000000     0          
T        Si     0.917266666667     0.917266666667     0.166666666667     0          
O        O      0.676800000000     0.897733333333     0.292366666667     0          
T        Si     0.666666666667     0.917266666667     0.000000000000     0          
O        O      0.779066666667     0.676800000000     0.125700000000     0          
T        Si     0.749400000000     0.666666666667     0.166666666667     0          
O        O      0.768933333333     0.779066666667     0.292366666667     0          
T        Si     0.749400000000     0.749400000000     0.000000000000     0          
O        O      0.989866666667     0.768933333333     0.125700000000     0          
T        Si     0.666666666667     0.749400000000     0.166666666667     0          
O        O      0.676800000000     0.779066666667     0.207633333333     0          
O        O      0.897733333333     0.676800000000     0.040966666667     0          
O        O      0.887600000000     0.897733333333     0.207633333333     0          
O        O      0.989866666667     0.887600000000     0.040966666667     0          
O        O      0.768933333333     0.989866666667     0.207633333333     0          
O        O      0.779066666667     0.768933333333     0.040966666667     0          
O        O      0.823700000000     0.745166666667     0.416666666667     0          
O        O      0.779066666667     0.676800000000     0.374300000000     0          
O        O      0.843966666667     0.687900000000     0.416666666667     0          
O        O      0.705433333333     0.961233333333     0.344200000000     0          
T        Si     0.806500000000     0.696666666667     0.416666666667     0          
T        Si     0.749400000000     0.666666666667     0.333333333333     0          
O        O      0.745200000000     0.823700000000     0.583333333333     0          
O        O      0.768933333333     0.779066666667     0.540966666667     0          
O        O      0.822733333333     0.843966666667     0.583333333333     0          
O        O      0.744200000000     0.705433333333     0.510866666667     0          
T        Si     0.776500000000     0.806500000000     0.583333333333     0          
T        Si     0.749400000000     0.749400000000     0.500000000000     0          
O        O      0.921500000000     0.745200000000     0.416666666667     0          
O        O      0.989866666667     0.768933333333     0.374300000000     0          
O        O      0.978766666667     0.822733333333     0.416666666667     0          
O        O      0.705433333333     0.744200000000     0.344200000000     0          
T        Si     0.970000000000     0.776500000000     0.416666666667     0          
T        Si     0.666666666667     0.749400000000     0.333333333333     0          
O        O      0.842966666667     0.921500000000     0.583333333333     0          
O        O      0.887600000000     0.989866666667     0.540966666667     0          
O        O      0.822700000000     0.978766666667     0.583333333333     0          
O        O      0.961233333333     0.705433333333     0.510866666667     0          
T        Si     0.860166666667     0.970000000000     0.583333333333     0          
T        Si     0.917266666667     0.666666666667     0.500000000000     0          
O        O      0.921466666667     0.842966666667     0.416666666667     0          
O        O      0.897733333333     0.887600000000     0.374300000000     0          
O        O      0.843933333333     0.822700000000     0.416666666667     0          
O        O      0.922466666667     0.961233333333     0.344200000000     0          
T        Si     0.890166666667     0.860166666667     0.416666666667     0          
T        Si     0.917266666667     0.917266666667     0.333333333333     0          
O        O      0.745166666667     0.921466666667     0.583333333333     0          
O        O      0.676800000000     0.897733333333     0.540966666667     0          
O        O      0.687900000000     0.843933333333     0.583333333333     0          
O        O      0.961233333333     0.922466666667     0.510866666667     0          
T        Si     0.696666666667     0.890166666667     0.583333333333     0          
T        Si     0.666666666667     0.917266666667     0.500000000000     0          
O        O      0.989866666667     0.887600000000     0.459033333333     0          
O        O      0.705433333333     0.961233333333     0.489133333333     0          
T        Si     0.970000000000     0.860166666667     0.416666666667     0          
O        O      0.768933333333     0.989866666667     0.625700000000     0          
O        O      0.744200000000     0.705433333333     0.655800000000     0          
T        Si     0.776500000000     0.970000000000     0.583333333333     0          
O        O      0.779066666667     0.768933333333     0.459033333333     0          
O        O      0.705433333333     0.744200000000     0.489133333333     0          
T        Si     0.806500000000     0.776500000000     0.416666666667     0          
O        O      0.676800000000     0.779066666667     0.625700000000     0          
O        O      0.961233333333     0.705433333333     0.655800000000     0          
T        Si     0.696666666667     0.806500000000     0.583333333333     0          
O        O      0.897733333333     0.676800000000     0.459033333333     0          
O        O      0.922466666667     0.961233333333     0.489133333333     0          
T        Si     0.890166666667     0.696666666667     0.416666666667     0          
O        O      0.887600000000     0.897733333333     0.625700000000     0          
O        O      0.961233333333     0.922466666667     0.655800000000     0          
T        Si     0.860166666667     0.890166666667     0.583333333333     0          
O        O      0.887600000000     0.989866666667     0.625700000000     0          
T        Si     0.917266666667     0.666666666667     0.333333333333     0          
O        O      0.897733333333     0.887600000000     0.459033333333     0          
T        Si     0.917266666667     0.917266666667     0.500000000000     0          
O        O      0.676800000000     0.897733333333     0.625700000000     0          
T        Si     0.666666666667     0.917266666667     0.333333333333     0          
O        O      0.779066666667     0.676800000000     0.459033333333     0          
T        Si     0.749400000000     0.666666666667     0.500000000000     0          
O        O      0.768933333333     0.779066666667     0.625700000000     0          
T        Si     0.749400000000     0.749400000000     0.333333333333     0          
O        O      0.989866666667     0.768933333333     0.459033333333     0          
T        Si     0.666666666667     0.749400000000     0.500000000000     0          
O        O      0.676800000000     0.779066666667     0.540966666667     0          
O        O      0.897733333333     0.676800000000     0.374300000000     0          
O        O      0.887600000000     0.897733333333     0.540966666667     0          
O        O      0.989866666667     0.887600000000     0.374300000000     0          
O        O      0.768933333333     0.989866666667     0.540966666667     0          
O        O      0.779066666667     0.768933333333     0.374300000000     0          
O        O      0.823700000000     0.745166666667     0.750000000000     0          
O        O      0.779066666667     0.676800000000     0.707633333333     0          
O        O      0.843966666667     0.687900000000     0.750000000000     0          
O        O      0.705433333333     0.961233333333     0.677533333333     0          
T        Si     0.806500000000     0.696666666667     0.750000000000     0          
T        Si     0.749400000000     0.666666666667     0.666666666667     0          
O        O      0.745200000000     0.823700000000     0.916666666667     0          
O        O      0.768933333333     0.779066666667     0.874300000000     0          
O        O      0.822733333333     0.843966666667     0.916666666667     0          
O        O      0.744200000000     0.705433333333     0.844200000000     0          
T        Si     0.776500000000     0.806500000000     0.916666666667     0          
T        Si     0.749400000000     0.749400000000     0.833333333333     0          
O        O      0.921500000000     0.745200000000     0.750000000000     0          
O        O      0.989866666667     0.768933333333     0.707633333333     0          
O        O      0.978766666667     0.822733333333     0.750000000000     0          
O        O      0.705433333333     0.744200000000     0.677533333333     0          
T        Si     0.970000000000     0.776500000000     0.750000000000     0          
T        Si     0.666666666667     0.749400000000     0.666666666667     0          
O        O      0.842966666667     0.921500000000     0.916666666667     0          
O        O      0.887600000000     0.989866666667     0.874300000000     0          
O        O      0.822700000000     0.978766666667     0.916666666667     0          
O        O      0.961233333333     0.705433333333     0.844200000000     0          
T        Si     0.860166666667     0.970000000000     0.916666666667     0          
T        Si     0.917266666667     0.666666666667     0.833333333333     0          
O        O      0.921466666667     0.842966666667     0.750000000000     0          
O        O      0.897733333333     0.887600000000     0.707633333333     0          
O        O      0.843933333333     0.822700000000     0.750000000000     0          
O        O      0.922466666667     0.961233333333     0.677533333333     0          
T        Si     0.890166666667     0.860166666667     0.750000000000     0          
T        Si     0.917266666667     0.917266666667     0.666666666667     0          
O        O      0.745166666667     0.921466666667     0.916666666667     0          
O        O      0.676800000000     0.897733333333     0.874300000000     0          
O        O      0.687900000000     0.843933333333     0.916666666667     0          
O        O      0.961233333333     0.922466666667     0.844200000000     0          
T        Si     0.696666666667     0.890166666667     0.916666666667     0          
T        Si     0.666666666667     0.917266666667     0.833333333333     0          
O        O      0.989866666667     0.887600000000     0.792366666667     0          
O        O      0.705433333333     0.961233333333     0.822466666667     0          
T        Si     0.970000000000     0.860166666667     0.750000000000     0          
O        O      0.768933333333     0.989866666667     0.959033333333     0          
O        O      0.744200000000     0.705433333333     0.989133333333     0          
T        Si     0.776500000000     0.970000000000     0.916666666667     0          
O        O      0.779066666667     0.768933333333     0.792366666667     0          
O        O      0.705433333333     0.744200000000     0.822466666667     0          
T        Si     0.806500000000     0.776500000000     0.750000000000     0          
O        O      0.676800000000     0.779066666667     0.959033333333     0          
O        O      0.961233333333     0.705433333333     0.989133333333     0          
T        Si     0.696666666667     0.806500000000     0.916666666667     0          
O        O      0.897733333333     0.676800000000     0.792366666667     0          
O        O      0.922466666667     0.961233333333     0.822466666667     0          
T        Si     0.890166666667     0.696666666667     0.750000000000     0          
O        O      0.887600000000     0.897733333333     0.959033333333     0          
O        O      0.961233333333     0.922466666667     0.989133333333     0          
T        Si     0.860166666667     0.890166666667     0.916666666667     0          
O        O      0.887600000000     0.989866666667     0.959033333333     0          
T        Si     0.917266666667     0.666666666667     0.666666666667     0          
O        O      0.897733333333     0.887600000000     0.792366666667     0          
T        Si     0.917266666667     0.917266666667     0.833333333333     0          
O        O      0.676800000000     0.897733333333     0.959033333333     0          
T        Si     0.666666666667     0.917266666667     0.666666666667     0          
O        O      0.779066666667     0.676800000000     0.792366666667     0          
T        Si     0.749400000000     0.666666666667     0.833333333333     0          
O        O      0.768933333333     0.779066666667     0.959033333333     0          
T        Si     0.749400000000     0.749400000000     0.666666666667     0          
O        O      0.989866666667     0.768933333333     0.792366666667     0          
T        Si     0.666666666667     0.749400000000     0.833333333333     0          
O        O      0.676800000000     0.779066666667     0.874300000000     0          
O        O      0.897733333333     0.676800000000     0.707633333333     0          
O        O      0.887600000000     0.897733333333     0.874300000000     0          
O        O      0.989866666667     0.887600000000     0.707633333333     0          
O        O      0.768933333333     0.989866666667     0.874300000000     0          
O        O      0.779066666667     0.768933333333     0.707633333333     0          


