data_zeolite

_audit_creation_method RASPA-1.0
_audit_creation_date 2021-6-7
_audit_author_name ''

_cell_length_a    8.22809
_cell_length_b    22.4563
_cell_length_c    37.8911
_cell_angle_alpha 90
_cell_angle_beta  90
_cell_angle_gamma 90
_cell_volume      56009.8

_symmetry_cell_setting          orthorhombic
_symmetry_space_group_name_Hall 'P 1'
_symmetry_space_group_name_H-M  'P 1'
_symmetry_Int_Tables_number     1

_symmetry_equiv_pos_as_xyz 'x,y,z'

loop_
_atom_site_label
_atom_site_type_symbol
_atom_site_fract_x
_atom_site_fract_y
_atom_site_fract_z
_atom_site_charge
T        Si     0.046962500000     0.054765000000     0.053240000000     0          
T        Si     0.046490000000     0.023640000000     0.145140000000     0          
T        Si     0.046537500000     0.158175000000     0.007610000000     0          
T        Si     0.077715000000     0.084185000000     0.121480000000     0          
T        Si     0.047430000000     0.175240000000     0.287780000000     0          
T        Si     0.047002500000     0.239745000000     0.210650000000     0          
T        Si     0.047465000000     0.147450000000     0.144680000000     0          
T        Si     0.078742500000     0.180635000000     0.077800000000     0          
T        Si     0.046285000000     0.244600000000     0.078140000000     0          
T        Si     0.078037500000     0.445235000000     0.553240000000     0          
T        Si     0.078510000000     0.476360000000     0.645140000000     0          
T        Si     0.078462500000     0.341825000000     0.507610000000     0          
T        Si     0.047285000000     0.415815000000     0.621480000000     0          
T        Si     0.077570000000     0.324760000000     0.787780000000     0          
T        Si     0.077997500000     0.260255000000     0.710650000000     0          
T        Si     0.077535000000     0.352550000000     0.644680000000     0          
T        Si     0.046257500000     0.319365000000     0.577800000000     0          
T        Si     0.078715000000     0.255400000000     0.578140000000     0          
T        Si     0.046962500000     0.445235000000     0.946760000000     0          
T        Si     0.046490000000     0.476360000000     0.854860000000     0          
T        Si     0.046537500000     0.341825000000     0.992390000000     0          
T        Si     0.077715000000     0.415815000000     0.878520000000     0          
T        Si     0.047430000000     0.324760000000     0.712220000000     0          
T        Si     0.047002500000     0.260255000000     0.789350000000     0          
T        Si     0.047465000000     0.352550000000     0.855320000000     0          
T        Si     0.078742500000     0.319365000000     0.922200000000     0          
T        Si     0.046285000000     0.255400000000     0.921860000000     0          
T        Si     0.078037500000     0.054765000000     0.446760000000     0          
T        Si     0.078510000000     0.023640000000     0.354860000000     0          
T        Si     0.078462500000     0.158175000000     0.492390000000     0          
T        Si     0.047285000000     0.084185000000     0.378520000000     0          
T        Si     0.077570000000     0.175240000000     0.212220000000     0          
T        Si     0.077997500000     0.239745000000     0.289350000000     0          
T        Si     0.077535000000     0.147450000000     0.355320000000     0          
T        Si     0.046257500000     0.180635000000     0.422200000000     0          
T        Si     0.078715000000     0.244600000000     0.421860000000     0          
T        Si     0.203037500000     0.445235000000     0.946760000000     0          
T        Si     0.203510000000     0.476360000000     0.854860000000     0          
T        Si     0.203462500000     0.341825000000     0.992390000000     0          
T        Si     0.172285000000     0.415815000000     0.878520000000     0          
T        Si     0.202570000000     0.324760000000     0.712220000000     0          
T        Si     0.202997500000     0.260255000000     0.789350000000     0          
T        Si     0.202535000000     0.352550000000     0.855320000000     0          
T        Si     0.171257500000     0.319365000000     0.922200000000     0          
T        Si     0.203715000000     0.255400000000     0.921860000000     0          
T        Si     0.171962500000     0.054765000000     0.446760000000     0          
T        Si     0.171490000000     0.023640000000     0.354860000000     0          
T        Si     0.171537500000     0.158175000000     0.492390000000     0          
T        Si     0.202715000000     0.084185000000     0.378520000000     0          
T        Si     0.172430000000     0.175240000000     0.212220000000     0          
T        Si     0.172002500000     0.239745000000     0.289350000000     0          
T        Si     0.172465000000     0.147450000000     0.355320000000     0          
T        Si     0.203742500000     0.180635000000     0.422200000000     0          
T        Si     0.171285000000     0.244600000000     0.421860000000     0          
T        Si     0.203037500000     0.054765000000     0.053240000000     0          
T        Si     0.203510000000     0.023640000000     0.145140000000     0          
T        Si     0.203462500000     0.158175000000     0.007610000000     0          
T        Si     0.172285000000     0.084185000000     0.121480000000     0          
T        Si     0.202570000000     0.175240000000     0.287780000000     0          
T        Si     0.202997500000     0.239745000000     0.210650000000     0          
T        Si     0.202535000000     0.147450000000     0.144680000000     0          
T        Si     0.171257500000     0.180635000000     0.077800000000     0          
T        Si     0.203715000000     0.244600000000     0.078140000000     0          
T        Si     0.171962500000     0.445235000000     0.553240000000     0          
T        Si     0.171490000000     0.476360000000     0.645140000000     0          
T        Si     0.171537500000     0.341825000000     0.507610000000     0          
T        Si     0.202715000000     0.415815000000     0.621480000000     0          
T        Si     0.172430000000     0.324760000000     0.787780000000     0          
T        Si     0.172002500000     0.260255000000     0.710650000000     0          
T        Si     0.172465000000     0.352550000000     0.644680000000     0          
T        Si     0.203742500000     0.319365000000     0.577800000000     0          
T        Si     0.171285000000     0.255400000000     0.578140000000     0          
T        Si     0.171962500000     0.304765000000     0.053240000000     0          
T        Si     0.171490000000     0.273640000000     0.145140000000     0          
T        Si     0.171537500000     0.408175000000     0.007610000000     0          
T        Si     0.202715000000     0.334185000000     0.121480000000     0          
T        Si     0.172430000000     0.425240000000     0.287780000000     0          
T        Si     0.172002500000     0.489745000000     0.210650000000     0          
T        Si     0.172465000000     0.397450000000     0.144680000000     0          
T        Si     0.203742500000     0.430635000000     0.077800000000     0          
T        Si     0.171285000000     0.494600000000     0.078140000000     0          
T        Si     0.203037500000     0.195235000000     0.553240000000     0          
T        Si     0.203510000000     0.226360000000     0.645140000000     0          
T        Si     0.203462500000     0.091825000000     0.507610000000     0          
T        Si     0.172285000000     0.165815000000     0.621480000000     0          
T        Si     0.202570000000     0.074760000000     0.787780000000     0          
T        Si     0.202997500000     0.010255000000     0.710650000000     0          
T        Si     0.202535000000     0.102550000000     0.644680000000     0          
T        Si     0.171257500000     0.069365000000     0.577800000000     0          
T        Si     0.203715000000     0.005400000000     0.578140000000     0          
T        Si     0.171962500000     0.195235000000     0.946760000000     0          
T        Si     0.171490000000     0.226360000000     0.854860000000     0          
T        Si     0.171537500000     0.091825000000     0.992390000000     0          
T        Si     0.202715000000     0.165815000000     0.878520000000     0          
T        Si     0.172430000000     0.074760000000     0.712220000000     0          
T        Si     0.172002500000     0.010255000000     0.789350000000     0          
T        Si     0.172465000000     0.102550000000     0.855320000000     0          
T        Si     0.203742500000     0.069365000000     0.922200000000     0          
T        Si     0.171285000000     0.005400000000     0.921860000000     0          
T        Si     0.203037500000     0.304765000000     0.446760000000     0          
T        Si     0.203510000000     0.273640000000     0.354860000000     0          
T        Si     0.203462500000     0.408175000000     0.492390000000     0          
T        Si     0.172285000000     0.334185000000     0.378520000000     0          
T        Si     0.202570000000     0.425240000000     0.212220000000     0          
T        Si     0.202997500000     0.489745000000     0.289350000000     0          
T        Si     0.202535000000     0.397450000000     0.355320000000     0          
T        Si     0.171257500000     0.430635000000     0.422200000000     0          
T        Si     0.203715000000     0.494600000000     0.421860000000     0          
T        Si     0.078037500000     0.195235000000     0.946760000000     0          
T        Si     0.078510000000     0.226360000000     0.854860000000     0          
T        Si     0.078462500000     0.091825000000     0.992390000000     0          
T        Si     0.047285000000     0.165815000000     0.878520000000     0          
T        Si     0.077570000000     0.074760000000     0.712220000000     0          
T        Si     0.077997500000     0.010255000000     0.789350000000     0          
T        Si     0.077535000000     0.102550000000     0.855320000000     0          
T        Si     0.046257500000     0.069365000000     0.922200000000     0          
T        Si     0.078715000000     0.005400000000     0.921860000000     0          
T        Si     0.046962500000     0.304765000000     0.446760000000     0          
T        Si     0.046490000000     0.273640000000     0.354860000000     0          
T        Si     0.046537500000     0.408175000000     0.492390000000     0          
T        Si     0.077715000000     0.334185000000     0.378520000000     0          
T        Si     0.047430000000     0.425240000000     0.212220000000     0          
T        Si     0.047002500000     0.489745000000     0.289350000000     0          
T        Si     0.047465000000     0.397450000000     0.355320000000     0          
T        Si     0.078742500000     0.430635000000     0.422200000000     0          
T        Si     0.046285000000     0.494600000000     0.421860000000     0          
T        Si     0.078037500000     0.304765000000     0.053240000000     0          
T        Si     0.078510000000     0.273640000000     0.145140000000     0          
T        Si     0.078462500000     0.408175000000     0.007610000000     0          
T        Si     0.047285000000     0.334185000000     0.121480000000     0          
T        Si     0.077570000000     0.425240000000     0.287780000000     0          
T        Si     0.077997500000     0.489745000000     0.210650000000     0          
T        Si     0.077535000000     0.397450000000     0.144680000000     0          
T        Si     0.046257500000     0.430635000000     0.077800000000     0          
T        Si     0.078715000000     0.494600000000     0.078140000000     0          
T        Si     0.046962500000     0.195235000000     0.553240000000     0          
T        Si     0.046490000000     0.226360000000     0.645140000000     0          
T        Si     0.046537500000     0.091825000000     0.507610000000     0          
T        Si     0.077715000000     0.165815000000     0.621480000000     0          
T        Si     0.047430000000     0.074760000000     0.787780000000     0          
T        Si     0.047002500000     0.010255000000     0.710650000000     0          
T        Si     0.047465000000     0.102550000000     0.644680000000     0          
T        Si     0.078742500000     0.069365000000     0.577800000000     0          
T        Si     0.046285000000     0.005400000000     0.578140000000     0          
T        Si     0.046962500000     0.554765000000     0.053240000000     0          
T        Si     0.046490000000     0.523640000000     0.145140000000     0          
T        Si     0.046537500000     0.658175000000     0.007610000000     0          
T        Si     0.077715000000     0.584185000000     0.121480000000     0          
T        Si     0.047430000000     0.675240000000     0.287780000000     0          
T        Si     0.047002500000     0.739745000000     0.210650000000     0          
T        Si     0.047465000000     0.647450000000     0.144680000000     0          
T        Si     0.078742500000     0.680635000000     0.077800000000     0          
T        Si     0.046285000000     0.744600000000     0.078140000000     0          
T        Si     0.078037500000     0.945235000000     0.553240000000     0          
T        Si     0.078510000000     0.976360000000     0.645140000000     0          
T        Si     0.078462500000     0.841825000000     0.507610000000     0          
T        Si     0.047285000000     0.915815000000     0.621480000000     0          
T        Si     0.077570000000     0.824760000000     0.787780000000     0          
T        Si     0.077997500000     0.760255000000     0.710650000000     0          
T        Si     0.077535000000     0.852550000000     0.644680000000     0          
T        Si     0.046257500000     0.819365000000     0.577800000000     0          
T        Si     0.078715000000     0.755400000000     0.578140000000     0          
T        Si     0.046962500000     0.945235000000     0.946760000000     0          
T        Si     0.046490000000     0.976360000000     0.854860000000     0          
T        Si     0.046537500000     0.841825000000     0.992390000000     0          
T        Si     0.077715000000     0.915815000000     0.878520000000     0          
T        Si     0.047430000000     0.824760000000     0.712220000000     0          
T        Si     0.047002500000     0.760255000000     0.789350000000     0          
T        Si     0.047465000000     0.852550000000     0.855320000000     0          
T        Si     0.078742500000     0.819365000000     0.922200000000     0          
T        Si     0.046285000000     0.755400000000     0.921860000000     0          
T        Si     0.078037500000     0.554765000000     0.446760000000     0          
T        Si     0.078510000000     0.523640000000     0.354860000000     0          
T        Si     0.078462500000     0.658175000000     0.492390000000     0          
T        Si     0.047285000000     0.584185000000     0.378520000000     0          
T        Si     0.077570000000     0.675240000000     0.212220000000     0          
T        Si     0.077997500000     0.739745000000     0.289350000000     0          
T        Si     0.077535000000     0.647450000000     0.355320000000     0          
T        Si     0.046257500000     0.680635000000     0.422200000000     0          
T        Si     0.078715000000     0.744600000000     0.421860000000     0          
T        Si     0.203037500000     0.945235000000     0.946760000000     0          
T        Si     0.203510000000     0.976360000000     0.854860000000     0          
T        Si     0.203462500000     0.841825000000     0.992390000000     0          
T        Si     0.172285000000     0.915815000000     0.878520000000     0          
T        Si     0.202570000000     0.824760000000     0.712220000000     0          
T        Si     0.202997500000     0.760255000000     0.789350000000     0          
T        Si     0.202535000000     0.852550000000     0.855320000000     0          
T        Si     0.171257500000     0.819365000000     0.922200000000     0          
T        Si     0.203715000000     0.755400000000     0.921860000000     0          
T        Si     0.171962500000     0.554765000000     0.446760000000     0          
T        Si     0.171490000000     0.523640000000     0.354860000000     0          
T        Si     0.171537500000     0.658175000000     0.492390000000     0          
T        Si     0.202715000000     0.584185000000     0.378520000000     0          
T        Si     0.172430000000     0.675240000000     0.212220000000     0          
T        Si     0.172002500000     0.739745000000     0.289350000000     0          
T        Si     0.172465000000     0.647450000000     0.355320000000     0          
T        Si     0.203742500000     0.680635000000     0.422200000000     0          
T        Si     0.171285000000     0.744600000000     0.421860000000     0          
T        Si     0.203037500000     0.554765000000     0.053240000000     0          
T        Si     0.203510000000     0.523640000000     0.145140000000     0          
T        Si     0.203462500000     0.658175000000     0.007610000000     0          
T        Si     0.172285000000     0.584185000000     0.121480000000     0          
T        Si     0.202570000000     0.675240000000     0.287780000000     0          
T        Si     0.202997500000     0.739745000000     0.210650000000     0          
T        Si     0.202535000000     0.647450000000     0.144680000000     0          
T        Si     0.171257500000     0.680635000000     0.077800000000     0          
T        Si     0.203715000000     0.744600000000     0.078140000000     0          
T        Si     0.171962500000     0.945235000000     0.553240000000     0          
T        Si     0.171490000000     0.976360000000     0.645140000000     0          
T        Si     0.171537500000     0.841825000000     0.507610000000     0          
T        Si     0.202715000000     0.915815000000     0.621480000000     0          
T        Si     0.172430000000     0.824760000000     0.787780000000     0          
T        Si     0.172002500000     0.760255000000     0.710650000000     0          
T        Si     0.172465000000     0.852550000000     0.644680000000     0          
T        Si     0.203742500000     0.819365000000     0.577800000000     0          
T        Si     0.171285000000     0.755400000000     0.578140000000     0          
T        Si     0.171962500000     0.804765000000     0.053240000000     0          
T        Si     0.171490000000     0.773640000000     0.145140000000     0          
T        Si     0.171537500000     0.908175000000     0.007610000000     0          
T        Si     0.202715000000     0.834185000000     0.121480000000     0          
T        Si     0.172430000000     0.925240000000     0.287780000000     0          
T        Si     0.172002500000     0.989745000000     0.210650000000     0          
T        Si     0.172465000000     0.897450000000     0.144680000000     0          
T        Si     0.203742500000     0.930635000000     0.077800000000     0          
T        Si     0.171285000000     0.994600000000     0.078140000000     0          
T        Si     0.203037500000     0.695235000000     0.553240000000     0          
T        Si     0.203510000000     0.726360000000     0.645140000000     0          
T        Si     0.203462500000     0.591825000000     0.507610000000     0          
T        Si     0.172285000000     0.665815000000     0.621480000000     0          
T        Si     0.202570000000     0.574760000000     0.787780000000     0          
T        Si     0.202997500000     0.510255000000     0.710650000000     0          
T        Si     0.202535000000     0.602550000000     0.644680000000     0          
T        Si     0.171257500000     0.569365000000     0.577800000000     0          
T        Si     0.203715000000     0.505400000000     0.578140000000     0          
T        Si     0.171962500000     0.695235000000     0.946760000000     0          
T        Si     0.171490000000     0.726360000000     0.854860000000     0          
T        Si     0.171537500000     0.591825000000     0.992390000000     0          
T        Si     0.202715000000     0.665815000000     0.878520000000     0          
T        Si     0.172430000000     0.574760000000     0.712220000000     0          
T        Si     0.172002500000     0.510255000000     0.789350000000     0          
T        Si     0.172465000000     0.602550000000     0.855320000000     0          
T        Si     0.203742500000     0.569365000000     0.922200000000     0          
T        Si     0.171285000000     0.505400000000     0.921860000000     0          
T        Si     0.203037500000     0.804765000000     0.446760000000     0          
T        Si     0.203510000000     0.773640000000     0.354860000000     0          
T        Si     0.203462500000     0.908175000000     0.492390000000     0          
T        Si     0.172285000000     0.834185000000     0.378520000000     0          
T        Si     0.202570000000     0.925240000000     0.212220000000     0          
T        Si     0.202997500000     0.989745000000     0.289350000000     0          
T        Si     0.202535000000     0.897450000000     0.355320000000     0          
T        Si     0.171257500000     0.930635000000     0.422200000000     0          
T        Si     0.203715000000     0.994600000000     0.421860000000     0          
T        Si     0.078037500000     0.695235000000     0.946760000000     0          
T        Si     0.078510000000     0.726360000000     0.854860000000     0          
T        Si     0.078462500000     0.591825000000     0.992390000000     0          
T        Si     0.047285000000     0.665815000000     0.878520000000     0          
T        Si     0.077570000000     0.574760000000     0.712220000000     0          
T        Si     0.077997500000     0.510255000000     0.789350000000     0          
T        Si     0.077535000000     0.602550000000     0.855320000000     0          
T        Si     0.046257500000     0.569365000000     0.922200000000     0          
T        Si     0.078715000000     0.505400000000     0.921860000000     0          
T        Si     0.046962500000     0.804765000000     0.446760000000     0          
T        Si     0.046490000000     0.773640000000     0.354860000000     0          
T        Si     0.046537500000     0.908175000000     0.492390000000     0          
T        Si     0.077715000000     0.834185000000     0.378520000000     0          
T        Si     0.047430000000     0.925240000000     0.212220000000     0          
T        Si     0.047002500000     0.989745000000     0.289350000000     0          
T        Si     0.047465000000     0.897450000000     0.355320000000     0          
T        Si     0.078742500000     0.930635000000     0.422200000000     0          
T        Si     0.046285000000     0.994600000000     0.421860000000     0          
T        Si     0.078037500000     0.804765000000     0.053240000000     0          
T        Si     0.078510000000     0.773640000000     0.145140000000     0          
T        Si     0.078462500000     0.908175000000     0.007610000000     0          
T        Si     0.047285000000     0.834185000000     0.121480000000     0          
T        Si     0.077570000000     0.925240000000     0.287780000000     0          
T        Si     0.077997500000     0.989745000000     0.210650000000     0          
T        Si     0.077535000000     0.897450000000     0.144680000000     0          
T        Si     0.046257500000     0.930635000000     0.077800000000     0          
T        Si     0.078715000000     0.994600000000     0.078140000000     0          
T        Si     0.046962500000     0.695235000000     0.553240000000     0          
T        Si     0.046490000000     0.726360000000     0.645140000000     0          
T        Si     0.046537500000     0.591825000000     0.507610000000     0          
T        Si     0.077715000000     0.665815000000     0.621480000000     0          
T        Si     0.047430000000     0.574760000000     0.787780000000     0          
T        Si     0.047002500000     0.510255000000     0.710650000000     0          
T        Si     0.047465000000     0.602550000000     0.644680000000     0          
T        Si     0.078742500000     0.569365000000     0.577800000000     0          
T        Si     0.046285000000     0.505400000000     0.578140000000     0          
T        Si     0.296962500000     0.054765000000     0.053240000000     0          
T        Si     0.296490000000     0.023640000000     0.145140000000     0          
T        Si     0.296537500000     0.158175000000     0.007610000000     0          
T        Si     0.327715000000     0.084185000000     0.121480000000     0          
T        Si     0.297430000000     0.175240000000     0.287780000000     0          
T        Si     0.297002500000     0.239745000000     0.210650000000     0          
T        Si     0.297465000000     0.147450000000     0.144680000000     0          
T        Si     0.328742500000     0.180635000000     0.077800000000     0          
T        Si     0.296285000000     0.244600000000     0.078140000000     0          
T        Si     0.328037500000     0.445235000000     0.553240000000     0          
T        Si     0.328510000000     0.476360000000     0.645140000000     0          
T        Si     0.328462500000     0.341825000000     0.507610000000     0          
T        Si     0.297285000000     0.415815000000     0.621480000000     0          
T        Si     0.327570000000     0.324760000000     0.787780000000     0          
T        Si     0.327997500000     0.260255000000     0.710650000000     0          
T        Si     0.327535000000     0.352550000000     0.644680000000     0          
T        Si     0.296257500000     0.319365000000     0.577800000000     0          
T        Si     0.328715000000     0.255400000000     0.578140000000     0          
T        Si     0.296962500000     0.445235000000     0.946760000000     0          
T        Si     0.296490000000     0.476360000000     0.854860000000     0          
T        Si     0.296537500000     0.341825000000     0.992390000000     0          
T        Si     0.327715000000     0.415815000000     0.878520000000     0          
T        Si     0.297430000000     0.324760000000     0.712220000000     0          
T        Si     0.297002500000     0.260255000000     0.789350000000     0          
T        Si     0.297465000000     0.352550000000     0.855320000000     0          
T        Si     0.328742500000     0.319365000000     0.922200000000     0          
T        Si     0.296285000000     0.255400000000     0.921860000000     0          
T        Si     0.328037500000     0.054765000000     0.446760000000     0          
T        Si     0.328510000000     0.023640000000     0.354860000000     0          
T        Si     0.328462500000     0.158175000000     0.492390000000     0          
T        Si     0.297285000000     0.084185000000     0.378520000000     0          
T        Si     0.327570000000     0.175240000000     0.212220000000     0          
T        Si     0.327997500000     0.239745000000     0.289350000000     0          
T        Si     0.327535000000     0.147450000000     0.355320000000     0          
T        Si     0.296257500000     0.180635000000     0.422200000000     0          
T        Si     0.328715000000     0.244600000000     0.421860000000     0          
T        Si     0.453037500000     0.445235000000     0.946760000000     0          
T        Si     0.453510000000     0.476360000000     0.854860000000     0          
T        Si     0.453462500000     0.341825000000     0.992390000000     0          
T        Si     0.422285000000     0.415815000000     0.878520000000     0          
T        Si     0.452570000000     0.324760000000     0.712220000000     0          
T        Si     0.452997500000     0.260255000000     0.789350000000     0          
T        Si     0.452535000000     0.352550000000     0.855320000000     0          
T        Si     0.421257500000     0.319365000000     0.922200000000     0          
T        Si     0.453715000000     0.255400000000     0.921860000000     0          
T        Si     0.421962500000     0.054765000000     0.446760000000     0          
T        Si     0.421490000000     0.023640000000     0.354860000000     0          
T        Si     0.421537500000     0.158175000000     0.492390000000     0          
T        Si     0.452715000000     0.084185000000     0.378520000000     0          
T        Si     0.422430000000     0.175240000000     0.212220000000     0          
T        Si     0.422002500000     0.239745000000     0.289350000000     0          
T        Si     0.422465000000     0.147450000000     0.355320000000     0          
T        Si     0.453742500000     0.180635000000     0.422200000000     0          
T        Si     0.421285000000     0.244600000000     0.421860000000     0          
T        Si     0.453037500000     0.054765000000     0.053240000000     0          
T        Si     0.453510000000     0.023640000000     0.145140000000     0          
T        Si     0.453462500000     0.158175000000     0.007610000000     0          
T        Si     0.422285000000     0.084185000000     0.121480000000     0          
T        Si     0.452570000000     0.175240000000     0.287780000000     0          
T        Si     0.452997500000     0.239745000000     0.210650000000     0          
T        Si     0.452535000000     0.147450000000     0.144680000000     0          
T        Si     0.421257500000     0.180635000000     0.077800000000     0          
T        Si     0.453715000000     0.244600000000     0.078140000000     0          
T        Si     0.421962500000     0.445235000000     0.553240000000     0          
T        Si     0.421490000000     0.476360000000     0.645140000000     0          
T        Si     0.421537500000     0.341825000000     0.507610000000     0          
T        Si     0.452715000000     0.415815000000     0.621480000000     0          
T        Si     0.422430000000     0.324760000000     0.787780000000     0          
T        Si     0.422002500000     0.260255000000     0.710650000000     0          
T        Si     0.422465000000     0.352550000000     0.644680000000     0          
T        Si     0.453742500000     0.319365000000     0.577800000000     0          
T        Si     0.421285000000     0.255400000000     0.578140000000     0          
T        Si     0.421962500000     0.304765000000     0.053240000000     0          
T        Si     0.421490000000     0.273640000000     0.145140000000     0          
T        Si     0.421537500000     0.408175000000     0.007610000000     0          
T        Si     0.452715000000     0.334185000000     0.121480000000     0          
T        Si     0.422430000000     0.425240000000     0.287780000000     0          
T        Si     0.422002500000     0.489745000000     0.210650000000     0          
T        Si     0.422465000000     0.397450000000     0.144680000000     0          
T        Si     0.453742500000     0.430635000000     0.077800000000     0          
T        Si     0.421285000000     0.494600000000     0.078140000000     0          
T        Si     0.453037500000     0.195235000000     0.553240000000     0          
T        Si     0.453510000000     0.226360000000     0.645140000000     0          
T        Si     0.453462500000     0.091825000000     0.507610000000     0          
T        Si     0.422285000000     0.165815000000     0.621480000000     0          
T        Si     0.452570000000     0.074760000000     0.787780000000     0          
T        Si     0.452997500000     0.010255000000     0.710650000000     0          
T        Si     0.452535000000     0.102550000000     0.644680000000     0          
T        Si     0.421257500000     0.069365000000     0.577800000000     0          
T        Si     0.453715000000     0.005400000000     0.578140000000     0          
T        Si     0.421962500000     0.195235000000     0.946760000000     0          
T        Si     0.421490000000     0.226360000000     0.854860000000     0          
T        Si     0.421537500000     0.091825000000     0.992390000000     0          
T        Si     0.452715000000     0.165815000000     0.878520000000     0          
T        Si     0.422430000000     0.074760000000     0.712220000000     0          
T        Si     0.422002500000     0.010255000000     0.789350000000     0          
T        Si     0.422465000000     0.102550000000     0.855320000000     0          
T        Si     0.453742500000     0.069365000000     0.922200000000     0          
T        Si     0.421285000000     0.005400000000     0.921860000000     0          
T        Si     0.453037500000     0.304765000000     0.446760000000     0          
T        Si     0.453510000000     0.273640000000     0.354860000000     0          
T        Si     0.453462500000     0.408175000000     0.492390000000     0          
T        Si     0.422285000000     0.334185000000     0.378520000000     0          
T        Si     0.452570000000     0.425240000000     0.212220000000     0          
T        Si     0.452997500000     0.489745000000     0.289350000000     0          
T        Si     0.452535000000     0.397450000000     0.355320000000     0          
T        Si     0.421257500000     0.430635000000     0.422200000000     0          
T        Si     0.453715000000     0.494600000000     0.421860000000     0          
T        Si     0.328037500000     0.195235000000     0.946760000000     0          
T        Si     0.328510000000     0.226360000000     0.854860000000     0          
T        Si     0.328462500000     0.091825000000     0.992390000000     0          
T        Si     0.297285000000     0.165815000000     0.878520000000     0          
T        Si     0.327570000000     0.074760000000     0.712220000000     0          
T        Si     0.327997500000     0.010255000000     0.789350000000     0          
T        Si     0.327535000000     0.102550000000     0.855320000000     0          
T        Si     0.296257500000     0.069365000000     0.922200000000     0          
T        Si     0.328715000000     0.005400000000     0.921860000000     0          
T        Si     0.296962500000     0.304765000000     0.446760000000     0          
T        Si     0.296490000000     0.273640000000     0.354860000000     0          
T        Si     0.296537500000     0.408175000000     0.492390000000     0          
T        Si     0.327715000000     0.334185000000     0.378520000000     0          
T        Si     0.297430000000     0.425240000000     0.212220000000     0          
T        Si     0.297002500000     0.489745000000     0.289350000000     0          
T        Si     0.297465000000     0.397450000000     0.355320000000     0          
T        Si     0.328742500000     0.430635000000     0.422200000000     0          
T        Si     0.296285000000     0.494600000000     0.421860000000     0          
T        Si     0.328037500000     0.304765000000     0.053240000000     0          
T        Si     0.328510000000     0.273640000000     0.145140000000     0          
T        Si     0.328462500000     0.408175000000     0.007610000000     0          
T        Si     0.297285000000     0.334185000000     0.121480000000     0          
T        Si     0.327570000000     0.425240000000     0.287780000000     0          
T        Si     0.327997500000     0.489745000000     0.210650000000     0          
T        Si     0.327535000000     0.397450000000     0.144680000000     0          
T        Si     0.296257500000     0.430635000000     0.077800000000     0          
T        Si     0.328715000000     0.494600000000     0.078140000000     0          
T        Si     0.296962500000     0.195235000000     0.553240000000     0          
T        Si     0.296490000000     0.226360000000     0.645140000000     0          
T        Si     0.296537500000     0.091825000000     0.507610000000     0          
T        Si     0.327715000000     0.165815000000     0.621480000000     0          
T        Si     0.297430000000     0.074760000000     0.787780000000     0          
T        Si     0.297002500000     0.010255000000     0.710650000000     0          
T        Si     0.297465000000     0.102550000000     0.644680000000     0          
T        Si     0.328742500000     0.069365000000     0.577800000000     0          
T        Si     0.296285000000     0.005400000000     0.578140000000     0          
T        Si     0.296962500000     0.554765000000     0.053240000000     0          
T        Si     0.296490000000     0.523640000000     0.145140000000     0          
T        Si     0.296537500000     0.658175000000     0.007610000000     0          
T        Si     0.327715000000     0.584185000000     0.121480000000     0          
T        Si     0.297430000000     0.675240000000     0.287780000000     0          
T        Si     0.297002500000     0.739745000000     0.210650000000     0          
T        Si     0.297465000000     0.647450000000     0.144680000000     0          
T        Si     0.328742500000     0.680635000000     0.077800000000     0          
T        Si     0.296285000000     0.744600000000     0.078140000000     0          
T        Si     0.328037500000     0.945235000000     0.553240000000     0          
T        Si     0.328510000000     0.976360000000     0.645140000000     0          
T        Si     0.328462500000     0.841825000000     0.507610000000     0          
T        Si     0.297285000000     0.915815000000     0.621480000000     0          
T        Si     0.327570000000     0.824760000000     0.787780000000     0          
T        Si     0.327997500000     0.760255000000     0.710650000000     0          
T        Si     0.327535000000     0.852550000000     0.644680000000     0          
T        Si     0.296257500000     0.819365000000     0.577800000000     0          
T        Si     0.328715000000     0.755400000000     0.578140000000     0          
T        Si     0.296962500000     0.945235000000     0.946760000000     0          
T        Si     0.296490000000     0.976360000000     0.854860000000     0          
T        Si     0.296537500000     0.841825000000     0.992390000000     0          
T        Si     0.327715000000     0.915815000000     0.878520000000     0          
T        Si     0.297430000000     0.824760000000     0.712220000000     0          
T        Si     0.297002500000     0.760255000000     0.789350000000     0          
T        Si     0.297465000000     0.852550000000     0.855320000000     0          
T        Si     0.328742500000     0.819365000000     0.922200000000     0          
T        Si     0.296285000000     0.755400000000     0.921860000000     0          
T        Si     0.328037500000     0.554765000000     0.446760000000     0          
T        Si     0.328510000000     0.523640000000     0.354860000000     0          
T        Si     0.328462500000     0.658175000000     0.492390000000     0          
T        Si     0.297285000000     0.584185000000     0.378520000000     0          
T        Si     0.327570000000     0.675240000000     0.212220000000     0          
T        Si     0.327997500000     0.739745000000     0.289350000000     0          
T        Si     0.327535000000     0.647450000000     0.355320000000     0          
T        Si     0.296257500000     0.680635000000     0.422200000000     0          
T        Si     0.328715000000     0.744600000000     0.421860000000     0          
T        Si     0.453037500000     0.945235000000     0.946760000000     0          
T        Si     0.453510000000     0.976360000000     0.854860000000     0          
T        Si     0.453462500000     0.841825000000     0.992390000000     0          
T        Si     0.422285000000     0.915815000000     0.878520000000     0          
T        Si     0.452570000000     0.824760000000     0.712220000000     0          
T        Si     0.452997500000     0.760255000000     0.789350000000     0          
T        Si     0.452535000000     0.852550000000     0.855320000000     0          
T        Si     0.421257500000     0.819365000000     0.922200000000     0          
T        Si     0.453715000000     0.755400000000     0.921860000000     0          
T        Si     0.421962500000     0.554765000000     0.446760000000     0          
T        Si     0.421490000000     0.523640000000     0.354860000000     0          
T        Si     0.421537500000     0.658175000000     0.492390000000     0          
T        Si     0.452715000000     0.584185000000     0.378520000000     0          
T        Si     0.422430000000     0.675240000000     0.212220000000     0          
T        Si     0.422002500000     0.739745000000     0.289350000000     0          
T        Si     0.422465000000     0.647450000000     0.355320000000     0          
T        Si     0.453742500000     0.680635000000     0.422200000000     0          
T        Si     0.421285000000     0.744600000000     0.421860000000     0          
T        Si     0.453037500000     0.554765000000     0.053240000000     0          
T        Si     0.453510000000     0.523640000000     0.145140000000     0          
T        Si     0.453462500000     0.658175000000     0.007610000000     0          
T        Si     0.422285000000     0.584185000000     0.121480000000     0          
T        Si     0.452570000000     0.675240000000     0.287780000000     0          
T        Si     0.452997500000     0.739745000000     0.210650000000     0          
T        Si     0.452535000000     0.647450000000     0.144680000000     0          
T        Si     0.421257500000     0.680635000000     0.077800000000     0          
T        Si     0.453715000000     0.744600000000     0.078140000000     0          
T        Si     0.421962500000     0.945235000000     0.553240000000     0          
T        Si     0.421490000000     0.976360000000     0.645140000000     0          
T        Si     0.421537500000     0.841825000000     0.507610000000     0          
T        Si     0.452715000000     0.915815000000     0.621480000000     0          
T        Si     0.422430000000     0.824760000000     0.787780000000     0          
T        Si     0.422002500000     0.760255000000     0.710650000000     0          
T        Si     0.422465000000     0.852550000000     0.644680000000     0          
T        Si     0.453742500000     0.819365000000     0.577800000000     0          
T        Si     0.421285000000     0.755400000000     0.578140000000     0          
T        Si     0.421962500000     0.804765000000     0.053240000000     0          
T        Si     0.421490000000     0.773640000000     0.145140000000     0          
T        Si     0.421537500000     0.908175000000     0.007610000000     0          
T        Si     0.452715000000     0.834185000000     0.121480000000     0          
T        Si     0.422430000000     0.925240000000     0.287780000000     0          
T        Si     0.422002500000     0.989745000000     0.210650000000     0          
T        Si     0.422465000000     0.897450000000     0.144680000000     0          
T        Si     0.453742500000     0.930635000000     0.077800000000     0          
T        Si     0.421285000000     0.994600000000     0.078140000000     0          
T        Si     0.453037500000     0.695235000000     0.553240000000     0          
T        Si     0.453510000000     0.726360000000     0.645140000000     0          
T        Si     0.453462500000     0.591825000000     0.507610000000     0          
T        Si     0.422285000000     0.665815000000     0.621480000000     0          
T        Si     0.452570000000     0.574760000000     0.787780000000     0          
T        Si     0.452997500000     0.510255000000     0.710650000000     0          
T        Si     0.452535000000     0.602550000000     0.644680000000     0          
T        Si     0.421257500000     0.569365000000     0.577800000000     0          
T        Si     0.453715000000     0.505400000000     0.578140000000     0          
T        Si     0.421962500000     0.695235000000     0.946760000000     0          
T        Si     0.421490000000     0.726360000000     0.854860000000     0          
T        Si     0.421537500000     0.591825000000     0.992390000000     0          
T        Si     0.452715000000     0.665815000000     0.878520000000     0          
T        Si     0.422430000000     0.574760000000     0.712220000000     0          
T        Si     0.422002500000     0.510255000000     0.789350000000     0          
T        Si     0.422465000000     0.602550000000     0.855320000000     0          
T        Si     0.453742500000     0.569365000000     0.922200000000     0          
T        Si     0.421285000000     0.505400000000     0.921860000000     0          
T        Si     0.453037500000     0.804765000000     0.446760000000     0          
T        Si     0.453510000000     0.773640000000     0.354860000000     0          
T        Si     0.453462500000     0.908175000000     0.492390000000     0          
T        Si     0.422285000000     0.834185000000     0.378520000000     0          
T        Si     0.452570000000     0.925240000000     0.212220000000     0          
T        Si     0.452997500000     0.989745000000     0.289350000000     0          
T        Si     0.452535000000     0.897450000000     0.355320000000     0          
T        Si     0.421257500000     0.930635000000     0.422200000000     0          
T        Si     0.453715000000     0.994600000000     0.421860000000     0          
T        Si     0.328037500000     0.695235000000     0.946760000000     0          
T        Si     0.328510000000     0.726360000000     0.854860000000     0          
T        Si     0.328462500000     0.591825000000     0.992390000000     0          
T        Si     0.297285000000     0.665815000000     0.878520000000     0          
T        Si     0.327570000000     0.574760000000     0.712220000000     0          
T        Si     0.327997500000     0.510255000000     0.789350000000     0          
T        Si     0.327535000000     0.602550000000     0.855320000000     0          
T        Si     0.296257500000     0.569365000000     0.922200000000     0          
T        Si     0.328715000000     0.505400000000     0.921860000000     0          
T        Si     0.296962500000     0.804765000000     0.446760000000     0          
T        Si     0.296490000000     0.773640000000     0.354860000000     0          
T        Si     0.296537500000     0.908175000000     0.492390000000     0          
T        Si     0.327715000000     0.834185000000     0.378520000000     0          
T        Si     0.297430000000     0.925240000000     0.212220000000     0          
T        Si     0.297002500000     0.989745000000     0.289350000000     0          
T        Si     0.297465000000     0.897450000000     0.355320000000     0          
T        Si     0.328742500000     0.930635000000     0.422200000000     0          
T        Si     0.296285000000     0.994600000000     0.421860000000     0          
T        Si     0.328037500000     0.804765000000     0.053240000000     0          
T        Si     0.328510000000     0.773640000000     0.145140000000     0          
T        Si     0.328462500000     0.908175000000     0.007610000000     0          
T        Si     0.297285000000     0.834185000000     0.121480000000     0          
T        Si     0.327570000000     0.925240000000     0.287780000000     0          
T        Si     0.327997500000     0.989745000000     0.210650000000     0          
T        Si     0.327535000000     0.897450000000     0.144680000000     0          
T        Si     0.296257500000     0.930635000000     0.077800000000     0          
T        Si     0.328715000000     0.994600000000     0.078140000000     0          
T        Si     0.296962500000     0.695235000000     0.553240000000     0          
T        Si     0.296490000000     0.726360000000     0.645140000000     0          
T        Si     0.296537500000     0.591825000000     0.507610000000     0          
T        Si     0.327715000000     0.665815000000     0.621480000000     0          
T        Si     0.297430000000     0.574760000000     0.787780000000     0          
T        Si     0.297002500000     0.510255000000     0.710650000000     0          
T        Si     0.297465000000     0.602550000000     0.644680000000     0          
T        Si     0.328742500000     0.569365000000     0.577800000000     0          
T        Si     0.296285000000     0.505400000000     0.578140000000     0          
T        Si     0.546962500000     0.054765000000     0.053240000000     0          
T        Si     0.546490000000     0.023640000000     0.145140000000     0          
T        Si     0.546537500000     0.158175000000     0.007610000000     0          
T        Si     0.577715000000     0.084185000000     0.121480000000     0          
T        Si     0.547430000000     0.175240000000     0.287780000000     0          
T        Si     0.547002500000     0.239745000000     0.210650000000     0          
T        Si     0.547465000000     0.147450000000     0.144680000000     0          
T        Si     0.578742500000     0.180635000000     0.077800000000     0          
T        Si     0.546285000000     0.244600000000     0.078140000000     0          
T        Si     0.578037500000     0.445235000000     0.553240000000     0          
T        Si     0.578510000000     0.476360000000     0.645140000000     0          
T        Si     0.578462500000     0.341825000000     0.507610000000     0          
T        Si     0.547285000000     0.415815000000     0.621480000000     0          
T        Si     0.577570000000     0.324760000000     0.787780000000     0          
T        Si     0.577997500000     0.260255000000     0.710650000000     0          
T        Si     0.577535000000     0.352550000000     0.644680000000     0          
T        Si     0.546257500000     0.319365000000     0.577800000000     0          
T        Si     0.578715000000     0.255400000000     0.578140000000     0          
T        Si     0.546962500000     0.445235000000     0.946760000000     0          
T        Si     0.546490000000     0.476360000000     0.854860000000     0          
T        Si     0.546537500000     0.341825000000     0.992390000000     0          
T        Si     0.577715000000     0.415815000000     0.878520000000     0          
T        Si     0.547430000000     0.324760000000     0.712220000000     0          
T        Si     0.547002500000     0.260255000000     0.789350000000     0          
T        Si     0.547465000000     0.352550000000     0.855320000000     0          
T        Si     0.578742500000     0.319365000000     0.922200000000     0          
T        Si     0.546285000000     0.255400000000     0.921860000000     0          
T        Si     0.578037500000     0.054765000000     0.446760000000     0          
T        Si     0.578510000000     0.023640000000     0.354860000000     0          
T        Si     0.578462500000     0.158175000000     0.492390000000     0          
T        Si     0.547285000000     0.084185000000     0.378520000000     0          
T        Si     0.577570000000     0.175240000000     0.212220000000     0          
T        Si     0.577997500000     0.239745000000     0.289350000000     0          
T        Si     0.577535000000     0.147450000000     0.355320000000     0          
T        Si     0.546257500000     0.180635000000     0.422200000000     0          
T        Si     0.578715000000     0.244600000000     0.421860000000     0          
T        Si     0.703037500000     0.445235000000     0.946760000000     0          
T        Si     0.703510000000     0.476360000000     0.854860000000     0          
T        Si     0.703462500000     0.341825000000     0.992390000000     0          
T        Si     0.672285000000     0.415815000000     0.878520000000     0          
T        Si     0.702570000000     0.324760000000     0.712220000000     0          
T        Si     0.702997500000     0.260255000000     0.789350000000     0          
T        Si     0.702535000000     0.352550000000     0.855320000000     0          
T        Si     0.671257500000     0.319365000000     0.922200000000     0          
T        Si     0.703715000000     0.255400000000     0.921860000000     0          
T        Si     0.671962500000     0.054765000000     0.446760000000     0          
T        Si     0.671490000000     0.023640000000     0.354860000000     0          
T        Si     0.671537500000     0.158175000000     0.492390000000     0          
T        Si     0.702715000000     0.084185000000     0.378520000000     0          
T        Si     0.672430000000     0.175240000000     0.212220000000     0          
T        Si     0.672002500000     0.239745000000     0.289350000000     0          
T        Si     0.672465000000     0.147450000000     0.355320000000     0          
T        Si     0.703742500000     0.180635000000     0.422200000000     0          
T        Si     0.671285000000     0.244600000000     0.421860000000     0          
T        Si     0.703037500000     0.054765000000     0.053240000000     0          
T        Si     0.703510000000     0.023640000000     0.145140000000     0          
T        Si     0.703462500000     0.158175000000     0.007610000000     0          
T        Si     0.672285000000     0.084185000000     0.121480000000     0          
T        Si     0.702570000000     0.175240000000     0.287780000000     0          
T        Si     0.702997500000     0.239745000000     0.210650000000     0          
T        Si     0.702535000000     0.147450000000     0.144680000000     0          
T        Si     0.671257500000     0.180635000000     0.077800000000     0          
T        Si     0.703715000000     0.244600000000     0.078140000000     0          
T        Si     0.671962500000     0.445235000000     0.553240000000     0          
T        Si     0.671490000000     0.476360000000     0.645140000000     0          
T        Si     0.671537500000     0.341825000000     0.507610000000     0          
T        Si     0.702715000000     0.415815000000     0.621480000000     0          
T        Si     0.672430000000     0.324760000000     0.787780000000     0          
T        Si     0.672002500000     0.260255000000     0.710650000000     0          
T        Si     0.672465000000     0.352550000000     0.644680000000     0          
T        Si     0.703742500000     0.319365000000     0.577800000000     0          
T        Si     0.671285000000     0.255400000000     0.578140000000     0          
T        Si     0.671962500000     0.304765000000     0.053240000000     0          
T        Si     0.671490000000     0.273640000000     0.145140000000     0          
T        Si     0.671537500000     0.408175000000     0.007610000000     0          
T        Si     0.702715000000     0.334185000000     0.121480000000     0          
T        Si     0.672430000000     0.425240000000     0.287780000000     0          
T        Si     0.672002500000     0.489745000000     0.210650000000     0          
T        Si     0.672465000000     0.397450000000     0.144680000000     0          
T        Si     0.703742500000     0.430635000000     0.077800000000     0          
T        Si     0.671285000000     0.494600000000     0.078140000000     0          
T        Si     0.703037500000     0.195235000000     0.553240000000     0          
T        Si     0.703510000000     0.226360000000     0.645140000000     0          
T        Si     0.703462500000     0.091825000000     0.507610000000     0          
T        Si     0.672285000000     0.165815000000     0.621480000000     0          
T        Si     0.702570000000     0.074760000000     0.787780000000     0          
T        Si     0.702997500000     0.010255000000     0.710650000000     0          
T        Si     0.702535000000     0.102550000000     0.644680000000     0          
T        Si     0.671257500000     0.069365000000     0.577800000000     0          
T        Si     0.703715000000     0.005400000000     0.578140000000     0          
T        Si     0.671962500000     0.195235000000     0.946760000000     0          
T        Si     0.671490000000     0.226360000000     0.854860000000     0          
T        Si     0.671537500000     0.091825000000     0.992390000000     0          
T        Si     0.702715000000     0.165815000000     0.878520000000     0          
T        Si     0.672430000000     0.074760000000     0.712220000000     0          
T        Si     0.672002500000     0.010255000000     0.789350000000     0          
T        Si     0.672465000000     0.102550000000     0.855320000000     0          
T        Si     0.703742500000     0.069365000000     0.922200000000     0          
T        Si     0.671285000000     0.005400000000     0.921860000000     0          
T        Si     0.703037500000     0.304765000000     0.446760000000     0          
T        Si     0.703510000000     0.273640000000     0.354860000000     0          
T        Si     0.703462500000     0.408175000000     0.492390000000     0          
T        Si     0.672285000000     0.334185000000     0.378520000000     0          
T        Si     0.702570000000     0.425240000000     0.212220000000     0          
T        Si     0.702997500000     0.489745000000     0.289350000000     0          
T        Si     0.702535000000     0.397450000000     0.355320000000     0          
T        Si     0.671257500000     0.430635000000     0.422200000000     0          
T        Si     0.703715000000     0.494600000000     0.421860000000     0          
T        Si     0.578037500000     0.195235000000     0.946760000000     0          
T        Si     0.578510000000     0.226360000000     0.854860000000     0          
T        Si     0.578462500000     0.091825000000     0.992390000000     0          
T        Si     0.547285000000     0.165815000000     0.878520000000     0          
T        Si     0.577570000000     0.074760000000     0.712220000000     0          
T        Si     0.577997500000     0.010255000000     0.789350000000     0          
T        Si     0.577535000000     0.102550000000     0.855320000000     0          
T        Si     0.546257500000     0.069365000000     0.922200000000     0          
T        Si     0.578715000000     0.005400000000     0.921860000000     0          
T        Si     0.546962500000     0.304765000000     0.446760000000     0          
T        Si     0.546490000000     0.273640000000     0.354860000000     0          
T        Si     0.546537500000     0.408175000000     0.492390000000     0          
T        Si     0.577715000000     0.334185000000     0.378520000000     0          
T        Si     0.547430000000     0.425240000000     0.212220000000     0          
T        Si     0.547002500000     0.489745000000     0.289350000000     0          
T        Si     0.547465000000     0.397450000000     0.355320000000     0          
T        Si     0.578742500000     0.430635000000     0.422200000000     0          
T        Si     0.546285000000     0.494600000000     0.421860000000     0          
T        Si     0.578037500000     0.304765000000     0.053240000000     0          
T        Si     0.578510000000     0.273640000000     0.145140000000     0          
T        Si     0.578462500000     0.408175000000     0.007610000000     0          
T        Si     0.547285000000     0.334185000000     0.121480000000     0          
T        Si     0.577570000000     0.425240000000     0.287780000000     0          
T        Si     0.577997500000     0.489745000000     0.210650000000     0          
T        Si     0.577535000000     0.397450000000     0.144680000000     0          
T        Si     0.546257500000     0.430635000000     0.077800000000     0          
T        Si     0.578715000000     0.494600000000     0.078140000000     0          
T        Si     0.546962500000     0.195235000000     0.553240000000     0          
T        Si     0.546490000000     0.226360000000     0.645140000000     0          
T        Si     0.546537500000     0.091825000000     0.507610000000     0          
T        Si     0.577715000000     0.165815000000     0.621480000000     0          
T        Si     0.547430000000     0.074760000000     0.787780000000     0          
T        Si     0.547002500000     0.010255000000     0.710650000000     0          
T        Si     0.547465000000     0.102550000000     0.644680000000     0          
T        Si     0.578742500000     0.069365000000     0.577800000000     0          
T        Si     0.546285000000     0.005400000000     0.578140000000     0          
T        Si     0.546962500000     0.554765000000     0.053240000000     0          
T        Si     0.546490000000     0.523640000000     0.145140000000     0          
T        Si     0.546537500000     0.658175000000     0.007610000000     0          
T        Si     0.577715000000     0.584185000000     0.121480000000     0          
T        Si     0.547430000000     0.675240000000     0.287780000000     0          
T        Si     0.547002500000     0.739745000000     0.210650000000     0          
T        Si     0.547465000000     0.647450000000     0.144680000000     0          
T        Si     0.578742500000     0.680635000000     0.077800000000     0          
T        Si     0.546285000000     0.744600000000     0.078140000000     0          
T        Si     0.578037500000     0.945235000000     0.553240000000     0          
T        Si     0.578510000000     0.976360000000     0.645140000000     0          
T        Si     0.578462500000     0.841825000000     0.507610000000     0          
T        Si     0.547285000000     0.915815000000     0.621480000000     0          
T        Si     0.577570000000     0.824760000000     0.787780000000     0          
T        Si     0.577997500000     0.760255000000     0.710650000000     0          
T        Si     0.577535000000     0.852550000000     0.644680000000     0          
T        Si     0.546257500000     0.819365000000     0.577800000000     0          
T        Si     0.578715000000     0.755400000000     0.578140000000     0          
T        Si     0.546962500000     0.945235000000     0.946760000000     0          
T        Si     0.546490000000     0.976360000000     0.854860000000     0          
T        Si     0.546537500000     0.841825000000     0.992390000000     0          
T        Si     0.577715000000     0.915815000000     0.878520000000     0          
T        Si     0.547430000000     0.824760000000     0.712220000000     0          
T        Si     0.547002500000     0.760255000000     0.789350000000     0          
T        Si     0.547465000000     0.852550000000     0.855320000000     0          
T        Si     0.578742500000     0.819365000000     0.922200000000     0          
T        Si     0.546285000000     0.755400000000     0.921860000000     0          
T        Si     0.578037500000     0.554765000000     0.446760000000     0          
T        Si     0.578510000000     0.523640000000     0.354860000000     0          
T        Si     0.578462500000     0.658175000000     0.492390000000     0          
T        Si     0.547285000000     0.584185000000     0.378520000000     0          
T        Si     0.577570000000     0.675240000000     0.212220000000     0          
T        Si     0.577997500000     0.739745000000     0.289350000000     0          
T        Si     0.577535000000     0.647450000000     0.355320000000     0          
T        Si     0.546257500000     0.680635000000     0.422200000000     0          
T        Si     0.578715000000     0.744600000000     0.421860000000     0          
T        Si     0.703037500000     0.945235000000     0.946760000000     0          
T        Si     0.703510000000     0.976360000000     0.854860000000     0          
T        Si     0.703462500000     0.841825000000     0.992390000000     0          
T        Si     0.672285000000     0.915815000000     0.878520000000     0          
T        Si     0.702570000000     0.824760000000     0.712220000000     0          
T        Si     0.702997500000     0.760255000000     0.789350000000     0          
T        Si     0.702535000000     0.852550000000     0.855320000000     0          
T        Si     0.671257500000     0.819365000000     0.922200000000     0          
T        Si     0.703715000000     0.755400000000     0.921860000000     0          
T        Si     0.671962500000     0.554765000000     0.446760000000     0          
T        Si     0.671490000000     0.523640000000     0.354860000000     0          
T        Si     0.671537500000     0.658175000000     0.492390000000     0          
T        Si     0.702715000000     0.584185000000     0.378520000000     0          
T        Si     0.672430000000     0.675240000000     0.212220000000     0          
T        Si     0.672002500000     0.739745000000     0.289350000000     0          
T        Si     0.672465000000     0.647450000000     0.355320000000     0          
T        Si     0.703742500000     0.680635000000     0.422200000000     0          
T        Si     0.671285000000     0.744600000000     0.421860000000     0          
T        Si     0.703037500000     0.554765000000     0.053240000000     0          
T        Si     0.703510000000     0.523640000000     0.145140000000     0          
T        Si     0.703462500000     0.658175000000     0.007610000000     0          
T        Si     0.672285000000     0.584185000000     0.121480000000     0          
T        Si     0.702570000000     0.675240000000     0.287780000000     0          
T        Si     0.702997500000     0.739745000000     0.210650000000     0          
T        Si     0.702535000000     0.647450000000     0.144680000000     0          
T        Si     0.671257500000     0.680635000000     0.077800000000     0          
T        Si     0.703715000000     0.744600000000     0.078140000000     0          
T        Si     0.671962500000     0.945235000000     0.553240000000     0          
T        Si     0.671490000000     0.976360000000     0.645140000000     0          
T        Si     0.671537500000     0.841825000000     0.507610000000     0          
T        Si     0.702715000000     0.915815000000     0.621480000000     0          
T        Si     0.672430000000     0.824760000000     0.787780000000     0          
T        Si     0.672002500000     0.760255000000     0.710650000000     0          
T        Si     0.672465000000     0.852550000000     0.644680000000     0          
T        Si     0.703742500000     0.819365000000     0.577800000000     0          
T        Si     0.671285000000     0.755400000000     0.578140000000     0          
T        Si     0.671962500000     0.804765000000     0.053240000000     0          
T        Si     0.671490000000     0.773640000000     0.145140000000     0          
T        Si     0.671537500000     0.908175000000     0.007610000000     0          
T        Si     0.702715000000     0.834185000000     0.121480000000     0          
T        Si     0.672430000000     0.925240000000     0.287780000000     0          
T        Si     0.672002500000     0.989745000000     0.210650000000     0          
T        Si     0.672465000000     0.897450000000     0.144680000000     0          
T        Si     0.703742500000     0.930635000000     0.077800000000     0          
T        Si     0.671285000000     0.994600000000     0.078140000000     0          
T        Si     0.703037500000     0.695235000000     0.553240000000     0          
T        Si     0.703510000000     0.726360000000     0.645140000000     0          
T        Si     0.703462500000     0.591825000000     0.507610000000     0          
T        Si     0.672285000000     0.665815000000     0.621480000000     0          
T        Si     0.702570000000     0.574760000000     0.787780000000     0          
T        Si     0.702997500000     0.510255000000     0.710650000000     0          
T        Si     0.702535000000     0.602550000000     0.644680000000     0          
T        Si     0.671257500000     0.569365000000     0.577800000000     0          
T        Si     0.703715000000     0.505400000000     0.578140000000     0          
T        Si     0.671962500000     0.695235000000     0.946760000000     0          
T        Si     0.671490000000     0.726360000000     0.854860000000     0          
T        Si     0.671537500000     0.591825000000     0.992390000000     0          
T        Si     0.702715000000     0.665815000000     0.878520000000     0          
T        Si     0.672430000000     0.574760000000     0.712220000000     0          
T        Si     0.672002500000     0.510255000000     0.789350000000     0          
T        Si     0.672465000000     0.602550000000     0.855320000000     0          
T        Si     0.703742500000     0.569365000000     0.922200000000     0          
T        Si     0.671285000000     0.505400000000     0.921860000000     0          
T        Si     0.703037500000     0.804765000000     0.446760000000     0          
T        Si     0.703510000000     0.773640000000     0.354860000000     0          
T        Si     0.703462500000     0.908175000000     0.492390000000     0          
T        Si     0.672285000000     0.834185000000     0.378520000000     0          
T        Si     0.702570000000     0.925240000000     0.212220000000     0          
T        Si     0.702997500000     0.989745000000     0.289350000000     0          
T        Si     0.702535000000     0.897450000000     0.355320000000     0          
T        Si     0.671257500000     0.930635000000     0.422200000000     0          
T        Si     0.703715000000     0.994600000000     0.421860000000     0          
T        Si     0.578037500000     0.695235000000     0.946760000000     0          
T        Si     0.578510000000     0.726360000000     0.854860000000     0          
T        Si     0.578462500000     0.591825000000     0.992390000000     0          
T        Si     0.547285000000     0.665815000000     0.878520000000     0          
T        Si     0.577570000000     0.574760000000     0.712220000000     0          
T        Si     0.577997500000     0.510255000000     0.789350000000     0          
T        Si     0.577535000000     0.602550000000     0.855320000000     0          
T        Si     0.546257500000     0.569365000000     0.922200000000     0          
T        Si     0.578715000000     0.505400000000     0.921860000000     0          
T        Si     0.546962500000     0.804765000000     0.446760000000     0          
T        Si     0.546490000000     0.773640000000     0.354860000000     0          
T        Si     0.546537500000     0.908175000000     0.492390000000     0          
T        Si     0.577715000000     0.834185000000     0.378520000000     0          
T        Si     0.547430000000     0.925240000000     0.212220000000     0          
T        Si     0.547002500000     0.989745000000     0.289350000000     0          
T        Si     0.547465000000     0.897450000000     0.355320000000     0          
T        Si     0.578742500000     0.930635000000     0.422200000000     0          
T        Si     0.546285000000     0.994600000000     0.421860000000     0          
T        Si     0.578037500000     0.804765000000     0.053240000000     0          
T        Si     0.578510000000     0.773640000000     0.145140000000     0          
T        Si     0.578462500000     0.908175000000     0.007610000000     0          
T        Si     0.547285000000     0.834185000000     0.121480000000     0          
T        Si     0.577570000000     0.925240000000     0.287780000000     0          
T        Si     0.577997500000     0.989745000000     0.210650000000     0          
T        Si     0.577535000000     0.897450000000     0.144680000000     0          
T        Si     0.546257500000     0.930635000000     0.077800000000     0          
T        Si     0.578715000000     0.994600000000     0.078140000000     0          
T        Si     0.546962500000     0.695235000000     0.553240000000     0          
T        Si     0.546490000000     0.726360000000     0.645140000000     0          
T        Si     0.546537500000     0.591825000000     0.507610000000     0          
T        Si     0.577715000000     0.665815000000     0.621480000000     0          
T        Si     0.547430000000     0.574760000000     0.787780000000     0          
T        Si     0.547002500000     0.510255000000     0.710650000000     0          
T        Si     0.547465000000     0.602550000000     0.644680000000     0          
T        Si     0.578742500000     0.569365000000     0.577800000000     0          
T        Si     0.546285000000     0.505400000000     0.578140000000     0          
T        Si     0.796962500000     0.054765000000     0.053240000000     0          
T        Si     0.796490000000     0.023640000000     0.145140000000     0          
T        Si     0.796537500000     0.158175000000     0.007610000000     0          
T        Si     0.827715000000     0.084185000000     0.121480000000     0          
T        Si     0.797430000000     0.175240000000     0.287780000000     0          
T        Si     0.797002500000     0.239745000000     0.210650000000     0          
T        Si     0.797465000000     0.147450000000     0.144680000000     0          
T        Si     0.828742500000     0.180635000000     0.077800000000     0          
T        Si     0.796285000000     0.244600000000     0.078140000000     0          
T        Si     0.828037500000     0.445235000000     0.553240000000     0          
T        Si     0.828510000000     0.476360000000     0.645140000000     0          
T        Si     0.828462500000     0.341825000000     0.507610000000     0          
T        Si     0.797285000000     0.415815000000     0.621480000000     0          
T        Si     0.827570000000     0.324760000000     0.787780000000     0          
T        Si     0.827997500000     0.260255000000     0.710650000000     0          
T        Si     0.827535000000     0.352550000000     0.644680000000     0          
T        Si     0.796257500000     0.319365000000     0.577800000000     0          
T        Si     0.828715000000     0.255400000000     0.578140000000     0          
T        Si     0.796962500000     0.445235000000     0.946760000000     0          
T        Si     0.796490000000     0.476360000000     0.854860000000     0          
T        Si     0.796537500000     0.341825000000     0.992390000000     0          
T        Si     0.827715000000     0.415815000000     0.878520000000     0          
T        Si     0.797430000000     0.324760000000     0.712220000000     0          
T        Si     0.797002500000     0.260255000000     0.789350000000     0          
T        Si     0.797465000000     0.352550000000     0.855320000000     0          
T        Si     0.828742500000     0.319365000000     0.922200000000     0          
T        Si     0.796285000000     0.255400000000     0.921860000000     0          
T        Si     0.828037500000     0.054765000000     0.446760000000     0          
T        Si     0.828510000000     0.023640000000     0.354860000000     0          
T        Si     0.828462500000     0.158175000000     0.492390000000     0          
T        Si     0.797285000000     0.084185000000     0.378520000000     0          
T        Si     0.827570000000     0.175240000000     0.212220000000     0          
T        Si     0.827997500000     0.239745000000     0.289350000000     0          
T        Si     0.827535000000     0.147450000000     0.355320000000     0          
T        Si     0.796257500000     0.180635000000     0.422200000000     0          
T        Si     0.828715000000     0.244600000000     0.421860000000     0          
T        Si     0.953037500000     0.445235000000     0.946760000000     0          
T        Si     0.953510000000     0.476360000000     0.854860000000     0          
T        Si     0.953462500000     0.341825000000     0.992390000000     0          
T        Si     0.922285000000     0.415815000000     0.878520000000     0          
T        Si     0.952570000000     0.324760000000     0.712220000000     0          
T        Si     0.952997500000     0.260255000000     0.789350000000     0          
T        Si     0.952535000000     0.352550000000     0.855320000000     0          
T        Si     0.921257500000     0.319365000000     0.922200000000     0          
T        Si     0.953715000000     0.255400000000     0.921860000000     0          
T        Si     0.921962500000     0.054765000000     0.446760000000     0          
T        Si     0.921490000000     0.023640000000     0.354860000000     0          
T        Si     0.921537500000     0.158175000000     0.492390000000     0          
T        Si     0.952715000000     0.084185000000     0.378520000000     0          
T        Si     0.922430000000     0.175240000000     0.212220000000     0          
T        Si     0.922002500000     0.239745000000     0.289350000000     0          
T        Si     0.922465000000     0.147450000000     0.355320000000     0          
T        Si     0.953742500000     0.180635000000     0.422200000000     0          
T        Si     0.921285000000     0.244600000000     0.421860000000     0          
T        Si     0.953037500000     0.054765000000     0.053240000000     0          
T        Si     0.953510000000     0.023640000000     0.145140000000     0          
T        Si     0.953462500000     0.158175000000     0.007610000000     0          
T        Si     0.922285000000     0.084185000000     0.121480000000     0          
T        Si     0.952570000000     0.175240000000     0.287780000000     0          
T        Si     0.952997500000     0.239745000000     0.210650000000     0          
T        Si     0.952535000000     0.147450000000     0.144680000000     0          
T        Si     0.921257500000     0.180635000000     0.077800000000     0          
T        Si     0.953715000000     0.244600000000     0.078140000000     0          
T        Si     0.921962500000     0.445235000000     0.553240000000     0          
T        Si     0.921490000000     0.476360000000     0.645140000000     0          
T        Si     0.921537500000     0.341825000000     0.507610000000     0          
T        Si     0.952715000000     0.415815000000     0.621480000000     0          
T        Si     0.922430000000     0.324760000000     0.787780000000     0          
T        Si     0.922002500000     0.260255000000     0.710650000000     0          
T        Si     0.922465000000     0.352550000000     0.644680000000     0          
T        Si     0.953742500000     0.319365000000     0.577800000000     0          
T        Si     0.921285000000     0.255400000000     0.578140000000     0          
T        Si     0.921962500000     0.304765000000     0.053240000000     0          
T        Si     0.921490000000     0.273640000000     0.145140000000     0          
T        Si     0.921537500000     0.408175000000     0.007610000000     0          
T        Si     0.952715000000     0.334185000000     0.121480000000     0          
T        Si     0.922430000000     0.425240000000     0.287780000000     0          
T        Si     0.922002500000     0.489745000000     0.210650000000     0          
T        Si     0.922465000000     0.397450000000     0.144680000000     0          
T        Si     0.953742500000     0.430635000000     0.077800000000     0          
T        Si     0.921285000000     0.494600000000     0.078140000000     0          
T        Si     0.953037500000     0.195235000000     0.553240000000     0          
T        Si     0.953510000000     0.226360000000     0.645140000000     0          
T        Si     0.953462500000     0.091825000000     0.507610000000     0          
T        Si     0.922285000000     0.165815000000     0.621480000000     0          
T        Si     0.952570000000     0.074760000000     0.787780000000     0          
T        Si     0.952997500000     0.010255000000     0.710650000000     0          
T        Si     0.952535000000     0.102550000000     0.644680000000     0          
T        Si     0.921257500000     0.069365000000     0.577800000000     0          
T        Si     0.953715000000     0.005400000000     0.578140000000     0          
T        Si     0.921962500000     0.195235000000     0.946760000000     0          
T        Si     0.921490000000     0.226360000000     0.854860000000     0          
T        Si     0.921537500000     0.091825000000     0.992390000000     0          
T        Si     0.952715000000     0.165815000000     0.878520000000     0          
T        Si     0.922430000000     0.074760000000     0.712220000000     0          
T        Si     0.922002500000     0.010255000000     0.789350000000     0          
T        Si     0.922465000000     0.102550000000     0.855320000000     0          
T        Si     0.953742500000     0.069365000000     0.922200000000     0          
T        Si     0.921285000000     0.005400000000     0.921860000000     0          
T        Si     0.953037500000     0.304765000000     0.446760000000     0          
T        Si     0.953510000000     0.273640000000     0.354860000000     0          
T        Si     0.953462500000     0.408175000000     0.492390000000     0          
T        Si     0.922285000000     0.334185000000     0.378520000000     0          
T        Si     0.952570000000     0.425240000000     0.212220000000     0          
T        Si     0.952997500000     0.489745000000     0.289350000000     0          
T        Si     0.952535000000     0.397450000000     0.355320000000     0          
T        Si     0.921257500000     0.430635000000     0.422200000000     0          
T        Si     0.953715000000     0.494600000000     0.421860000000     0          
T        Si     0.828037500000     0.195235000000     0.946760000000     0          
T        Si     0.828510000000     0.226360000000     0.854860000000     0          
T        Si     0.828462500000     0.091825000000     0.992390000000     0          
T        Si     0.797285000000     0.165815000000     0.878520000000     0          
T        Si     0.827570000000     0.074760000000     0.712220000000     0          
T        Si     0.827997500000     0.010255000000     0.789350000000     0          
T        Si     0.827535000000     0.102550000000     0.855320000000     0          
T        Si     0.796257500000     0.069365000000     0.922200000000     0          
T        Si     0.828715000000     0.005400000000     0.921860000000     0          
T        Si     0.796962500000     0.304765000000     0.446760000000     0          
T        Si     0.796490000000     0.273640000000     0.354860000000     0          
T        Si     0.796537500000     0.408175000000     0.492390000000     0          
T        Si     0.827715000000     0.334185000000     0.378520000000     0          
T        Si     0.797430000000     0.425240000000     0.212220000000     0          
T        Si     0.797002500000     0.489745000000     0.289350000000     0          
T        Si     0.797465000000     0.397450000000     0.355320000000     0          
T        Si     0.828742500000     0.430635000000     0.422200000000     0          
T        Si     0.796285000000     0.494600000000     0.421860000000     0          
T        Si     0.828037500000     0.304765000000     0.053240000000     0          
T        Si     0.828510000000     0.273640000000     0.145140000000     0          
T        Si     0.828462500000     0.408175000000     0.007610000000     0          
T        Si     0.797285000000     0.334185000000     0.121480000000     0          
T        Si     0.827570000000     0.425240000000     0.287780000000     0          
T        Si     0.827997500000     0.489745000000     0.210650000000     0          
T        Si     0.827535000000     0.397450000000     0.144680000000     0          
T        Si     0.796257500000     0.430635000000     0.077800000000     0          
T        Si     0.828715000000     0.494600000000     0.078140000000     0          
T        Si     0.796962500000     0.195235000000     0.553240000000     0          
T        Si     0.796490000000     0.226360000000     0.645140000000     0          
T        Si     0.796537500000     0.091825000000     0.507610000000     0          
T        Si     0.827715000000     0.165815000000     0.621480000000     0          
T        Si     0.797430000000     0.074760000000     0.787780000000     0          
T        Si     0.797002500000     0.010255000000     0.710650000000     0          
T        Si     0.797465000000     0.102550000000     0.644680000000     0          
T        Si     0.828742500000     0.069365000000     0.577800000000     0          
T        Si     0.796285000000     0.005400000000     0.578140000000     0          
T        Si     0.796962500000     0.554765000000     0.053240000000     0          
T        Si     0.796490000000     0.523640000000     0.145140000000     0          
T        Si     0.796537500000     0.658175000000     0.007610000000     0          
T        Si     0.827715000000     0.584185000000     0.121480000000     0          
T        Si     0.797430000000     0.675240000000     0.287780000000     0          
T        Si     0.797002500000     0.739745000000     0.210650000000     0          
T        Si     0.797465000000     0.647450000000     0.144680000000     0          
T        Si     0.828742500000     0.680635000000     0.077800000000     0          
T        Si     0.796285000000     0.744600000000     0.078140000000     0          
T        Si     0.828037500000     0.945235000000     0.553240000000     0          
T        Si     0.828510000000     0.976360000000     0.645140000000     0          
T        Si     0.828462500000     0.841825000000     0.507610000000     0          
T        Si     0.797285000000     0.915815000000     0.621480000000     0          
T        Si     0.827570000000     0.824760000000     0.787780000000     0          
T        Si     0.827997500000     0.760255000000     0.710650000000     0          
T        Si     0.827535000000     0.852550000000     0.644680000000     0          
T        Si     0.796257500000     0.819365000000     0.577800000000     0          
T        Si     0.828715000000     0.755400000000     0.578140000000     0          
T        Si     0.796962500000     0.945235000000     0.946760000000     0          
T        Si     0.796490000000     0.976360000000     0.854860000000     0          
T        Si     0.796537500000     0.841825000000     0.992390000000     0          
T        Si     0.827715000000     0.915815000000     0.878520000000     0          
T        Si     0.797430000000     0.824760000000     0.712220000000     0          
T        Si     0.797002500000     0.760255000000     0.789350000000     0          
T        Si     0.797465000000     0.852550000000     0.855320000000     0          
T        Si     0.828742500000     0.819365000000     0.922200000000     0          
T        Si     0.796285000000     0.755400000000     0.921860000000     0          
T        Si     0.828037500000     0.554765000000     0.446760000000     0          
T        Si     0.828510000000     0.523640000000     0.354860000000     0          
T        Si     0.828462500000     0.658175000000     0.492390000000     0          
T        Si     0.797285000000     0.584185000000     0.378520000000     0          
T        Si     0.827570000000     0.675240000000     0.212220000000     0          
T        Si     0.827997500000     0.739745000000     0.289350000000     0          
T        Si     0.827535000000     0.647450000000     0.355320000000     0          
T        Si     0.796257500000     0.680635000000     0.422200000000     0          
T        Si     0.828715000000     0.744600000000     0.421860000000     0          
T        Si     0.953037500000     0.945235000000     0.946760000000     0          
T        Si     0.953510000000     0.976360000000     0.854860000000     0          
T        Si     0.953462500000     0.841825000000     0.992390000000     0          
T        Si     0.922285000000     0.915815000000     0.878520000000     0          
T        Si     0.952570000000     0.824760000000     0.712220000000     0          
T        Si     0.952997500000     0.760255000000     0.789350000000     0          
T        Si     0.952535000000     0.852550000000     0.855320000000     0          
T        Si     0.921257500000     0.819365000000     0.922200000000     0          
T        Si     0.953715000000     0.755400000000     0.921860000000     0          
T        Si     0.921962500000     0.554765000000     0.446760000000     0          
T        Si     0.921490000000     0.523640000000     0.354860000000     0          
T        Si     0.921537500000     0.658175000000     0.492390000000     0          
T        Si     0.952715000000     0.584185000000     0.378520000000     0          
T        Si     0.922430000000     0.675240000000     0.212220000000     0          
T        Si     0.922002500000     0.739745000000     0.289350000000     0          
T        Si     0.922465000000     0.647450000000     0.355320000000     0          
T        Si     0.953742500000     0.680635000000     0.422200000000     0          
T        Si     0.921285000000     0.744600000000     0.421860000000     0          
T        Si     0.953037500000     0.554765000000     0.053240000000     0          
T        Si     0.953510000000     0.523640000000     0.145140000000     0          
T        Si     0.953462500000     0.658175000000     0.007610000000     0          
T        Si     0.922285000000     0.584185000000     0.121480000000     0          
T        Si     0.952570000000     0.675240000000     0.287780000000     0          
T        Si     0.952997500000     0.739745000000     0.210650000000     0          
T        Si     0.952535000000     0.647450000000     0.144680000000     0          
T        Si     0.921257500000     0.680635000000     0.077800000000     0          
T        Si     0.953715000000     0.744600000000     0.078140000000     0          
T        Si     0.921962500000     0.945235000000     0.553240000000     0          
T        Si     0.921490000000     0.976360000000     0.645140000000     0          
T        Si     0.921537500000     0.841825000000     0.507610000000     0          
T        Si     0.952715000000     0.915815000000     0.621480000000     0          
T        Si     0.922430000000     0.824760000000     0.787780000000     0          
T        Si     0.922002500000     0.760255000000     0.710650000000     0          
T        Si     0.922465000000     0.852550000000     0.644680000000     0          
T        Si     0.953742500000     0.819365000000     0.577800000000     0          
T        Si     0.921285000000     0.755400000000     0.578140000000     0          
T        Si     0.921962500000     0.804765000000     0.053240000000     0          
T        Si     0.921490000000     0.773640000000     0.145140000000     0          
T        Si     0.921537500000     0.908175000000     0.007610000000     0          
T        Si     0.952715000000     0.834185000000     0.121480000000     0          
T        Si     0.922430000000     0.925240000000     0.287780000000     0          
T        Si     0.922002500000     0.989745000000     0.210650000000     0          
T        Si     0.922465000000     0.897450000000     0.144680000000     0          
T        Si     0.953742500000     0.930635000000     0.077800000000     0          
T        Si     0.921285000000     0.994600000000     0.078140000000     0          
T        Si     0.953037500000     0.695235000000     0.553240000000     0          
T        Si     0.953510000000     0.726360000000     0.645140000000     0          
T        Si     0.953462500000     0.591825000000     0.507610000000     0          
T        Si     0.922285000000     0.665815000000     0.621480000000     0          
T        Si     0.952570000000     0.574760000000     0.787780000000     0          
T        Si     0.952997500000     0.510255000000     0.710650000000     0          
T        Si     0.952535000000     0.602550000000     0.644680000000     0          
T        Si     0.921257500000     0.569365000000     0.577800000000     0          
T        Si     0.953715000000     0.505400000000     0.578140000000     0          
T        Si     0.921962500000     0.695235000000     0.946760000000     0          
T        Si     0.921490000000     0.726360000000     0.854860000000     0          
T        Si     0.921537500000     0.591825000000     0.992390000000     0          
T        Si     0.952715000000     0.665815000000     0.878520000000     0          
T        Si     0.922430000000     0.574760000000     0.712220000000     0          
T        Si     0.922002500000     0.510255000000     0.789350000000     0          
T        Si     0.922465000000     0.602550000000     0.855320000000     0          
T        Si     0.953742500000     0.569365000000     0.922200000000     0          
T        Si     0.921285000000     0.505400000000     0.921860000000     0          
T        Si     0.953037500000     0.804765000000     0.446760000000     0          
T        Si     0.953510000000     0.773640000000     0.354860000000     0          
T        Si     0.953462500000     0.908175000000     0.492390000000     0          
T        Si     0.922285000000     0.834185000000     0.378520000000     0          
T        Si     0.952570000000     0.925240000000     0.212220000000     0          
T        Si     0.952997500000     0.989745000000     0.289350000000     0          
T        Si     0.952535000000     0.897450000000     0.355320000000     0          
T        Si     0.921257500000     0.930635000000     0.422200000000     0          
T        Si     0.953715000000     0.994600000000     0.421860000000     0          
T        Si     0.828037500000     0.695235000000     0.946760000000     0          
T        Si     0.828510000000     0.726360000000     0.854860000000     0          
T        Si     0.828462500000     0.591825000000     0.992390000000     0          
T        Si     0.797285000000     0.665815000000     0.878520000000     0          
T        Si     0.827570000000     0.574760000000     0.712220000000     0          
T        Si     0.827997500000     0.510255000000     0.789350000000     0          
T        Si     0.827535000000     0.602550000000     0.855320000000     0          
T        Si     0.796257500000     0.569365000000     0.922200000000     0          
T        Si     0.828715000000     0.505400000000     0.921860000000     0          
T        Si     0.796962500000     0.804765000000     0.446760000000     0          
T        Si     0.796490000000     0.773640000000     0.354860000000     0          
T        Si     0.796537500000     0.908175000000     0.492390000000     0          
T        Si     0.827715000000     0.834185000000     0.378520000000     0          
T        Si     0.797430000000     0.925240000000     0.212220000000     0          
T        Si     0.797002500000     0.989745000000     0.289350000000     0          
T        Si     0.797465000000     0.897450000000     0.355320000000     0          
T        Si     0.828742500000     0.930635000000     0.422200000000     0          
T        Si     0.796285000000     0.994600000000     0.421860000000     0          
T        Si     0.828037500000     0.804765000000     0.053240000000     0          
T        Si     0.828510000000     0.773640000000     0.145140000000     0          
T        Si     0.828462500000     0.908175000000     0.007610000000     0          
T        Si     0.797285000000     0.834185000000     0.121480000000     0          
T        Si     0.827570000000     0.925240000000     0.287780000000     0          
T        Si     0.827997500000     0.989745000000     0.210650000000     0          
T        Si     0.827535000000     0.897450000000     0.144680000000     0          
T        Si     0.796257500000     0.930635000000     0.077800000000     0          
T        Si     0.828715000000     0.994600000000     0.078140000000     0          
T        Si     0.796962500000     0.695235000000     0.553240000000     0          
T        Si     0.796490000000     0.726360000000     0.645140000000     0          
T        Si     0.796537500000     0.591825000000     0.507610000000     0          
T        Si     0.827715000000     0.665815000000     0.621480000000     0          
T        Si     0.797430000000     0.574760000000     0.787780000000     0          
T        Si     0.797002500000     0.510255000000     0.710650000000     0          
T        Si     0.797465000000     0.602550000000     0.644680000000     0          
T        Si     0.828742500000     0.569365000000     0.577800000000     0          
T        Si     0.796285000000     0.505400000000     0.578140000000     0          
O        O      0.064325000000     0.021245000000     0.052620000000     0          
O        O      0.050852500000     0.068635000000     0.014190000000     0          
O        O      0.072580000000     0.074605000000     0.080770000000     0          
O        O      0.000000000000     0.054290000000     0.065070000000     0          
O        O      0.060252500000     0.058030000000     0.146310000000     0          
O        O      0.075692500000     0.005760000000     0.118440000000     0          
O        O      0.050722500000     0.008980000000     0.183730000000     0          
O        O      0.000000000000     0.021355000000     0.132180000000     0          
O        O      0.062500000000     0.125000000000     0.000000000000     0          
O        O      0.000000000000     0.161180000000     0.995020000000     0          
O        O      0.049587500000     0.164855000000     0.049270000000     0          
O        O      0.052847500000     0.114385000000     0.129020000000     0          
O        O      0.125000000000     0.089500000000     0.130260000000     0          
O        O      0.072787500000     0.204785000000     0.297570000000     0          
O        O      0.062500000000     0.163015000000     0.250000000000     0          
O        O      0.054322500000     0.150600000000     0.318070000000     0          
O        O      0.000000000000     0.183695000000     0.285440000000     0          
O        O      0.062500000000     0.246860000000     0.250000000000     0          
O        O      0.000000000000     0.249065000000     0.206700000000     0          
O        O      0.065415000000     0.171395000000     0.117170000000     0          
O        O      0.000000000000     0.154290000000     0.150850000000     0          
O        O      0.075480000000     0.216175000000     0.073010000000     0          
O        O      0.125000000000     0.170400000000     0.071100000000     0          
O        O      0.000000000000     0.235710000000     0.069290000000     0          
O        O      0.060675000000     0.478755000000     0.552620000000     0          
O        O      0.074147500000     0.431365000000     0.514190000000     0          
O        O      0.052420000000     0.425395000000     0.580770000000     0          
O        O      0.125000000000     0.445710000000     0.565070000000     0          
O        O      0.064747500000     0.441970000000     0.646310000000     0          
O        O      0.049307500000     0.494240000000     0.618440000000     0          
O        O      0.074277500000     0.491020000000     0.683730000000     0          
O        O      0.125000000000     0.478645000000     0.632180000000     0          
O        O      0.062500000000     0.375000000000     0.500000000000     0          
O        O      0.125000000000     0.338820000000     0.495020000000     0          
O        O      0.075412500000     0.335145000000     0.549270000000     0          
O        O      0.072152500000     0.385615000000     0.629020000000     0          
O        O      0.000000000000     0.410500000000     0.630260000000     0          
O        O      0.052212500000     0.295215000000     0.797570000000     0          
O        O      0.062500000000     0.336985000000     0.750000000000     0          
O        O      0.070677500000     0.349400000000     0.818070000000     0          
O        O      0.125000000000     0.316305000000     0.785440000000     0          
O        O      0.062500000000     0.253140000000     0.750000000000     0          
O        O      0.125000000000     0.250935000000     0.706700000000     0          
O        O      0.059585000000     0.328605000000     0.617170000000     0          
O        O      0.125000000000     0.345710000000     0.650850000000     0          
O        O      0.049520000000     0.283825000000     0.573010000000     0          
O        O      0.000000000000     0.329600000000     0.571100000000     0          
O        O      0.125000000000     0.264290000000     0.569290000000     0          
O        O      0.064325000000     0.478755000000     0.947380000000     0          
O        O      0.050852500000     0.431365000000     0.985810000000     0          
O        O      0.072580000000     0.425395000000     0.919230000000     0          
O        O      0.000000000000     0.445710000000     0.934930000000     0          
O        O      0.060252500000     0.441970000000     0.853690000000     0          
O        O      0.075692500000     0.494240000000     0.881560000000     0          
O        O      0.050722500000     0.491020000000     0.816270000000     0          
O        O      0.000000000000     0.478645000000     0.867820000000     0          
O        O      0.062500000000     0.375000000000     0.000000000000     0          
O        O      0.000000000000     0.338820000000     0.004980000000     0          
O        O      0.049587500000     0.335145000000     0.950730000000     0          
O        O      0.052847500000     0.385615000000     0.870980000000     0          
O        O      0.125000000000     0.410500000000     0.869740000000     0          
O        O      0.072787500000     0.295215000000     0.702430000000     0          
O        O      0.054322500000     0.349400000000     0.681930000000     0          
O        O      0.000000000000     0.316305000000     0.714560000000     0          
O        O      0.000000000000     0.250935000000     0.793300000000     0          
O        O      0.065415000000     0.328605000000     0.882830000000     0          
O        O      0.000000000000     0.345710000000     0.849150000000     0          
O        O      0.075480000000     0.283825000000     0.926990000000     0          
O        O      0.125000000000     0.329600000000     0.928900000000     0          
O        O      0.000000000000     0.264290000000     0.930710000000     0          
O        O      0.060675000000     0.021245000000     0.447380000000     0          
O        O      0.074147500000     0.068635000000     0.485810000000     0          
O        O      0.052420000000     0.074605000000     0.419230000000     0          
O        O      0.125000000000     0.054290000000     0.434930000000     0          
O        O      0.064747500000     0.058030000000     0.353690000000     0          
O        O      0.049307500000     0.005760000000     0.381560000000     0          
O        O      0.074277500000     0.008980000000     0.316270000000     0          
O        O      0.125000000000     0.021355000000     0.367820000000     0          
O        O      0.062500000000     0.125000000000     0.500000000000     0          
O        O      0.125000000000     0.161180000000     0.504980000000     0          
O        O      0.075412500000     0.164855000000     0.450730000000     0          
O        O      0.072152500000     0.114385000000     0.370980000000     0          
O        O      0.000000000000     0.089500000000     0.369740000000     0          
O        O      0.052212500000     0.204785000000     0.202430000000     0          
O        O      0.070677500000     0.150600000000     0.181930000000     0          
O        O      0.125000000000     0.183695000000     0.214560000000     0          
O        O      0.125000000000     0.249065000000     0.293300000000     0          
O        O      0.059585000000     0.171395000000     0.382830000000     0          
O        O      0.125000000000     0.154290000000     0.349150000000     0          
O        O      0.049520000000     0.216175000000     0.426990000000     0          
O        O      0.000000000000     0.170400000000     0.428900000000     0          
O        O      0.125000000000     0.235710000000     0.430710000000     0          
O        O      0.185675000000     0.478755000000     0.947380000000     0          
O        O      0.199147500000     0.431365000000     0.985810000000     0          
O        O      0.177420000000     0.425395000000     0.919230000000     0          
O        O      0.189747500000     0.441970000000     0.853690000000     0          
O        O      0.174307500000     0.494240000000     0.881560000000     0          
O        O      0.199277500000     0.491020000000     0.816270000000     0          
O        O      0.187500000000     0.375000000000     0.000000000000     0          
O        O      0.200412500000     0.335145000000     0.950730000000     0          
O        O      0.197152500000     0.385615000000     0.870980000000     0          
O        O      0.177212500000     0.295215000000     0.702430000000     0          
O        O      0.187500000000     0.336985000000     0.750000000000     0          
O        O      0.195677500000     0.349400000000     0.681930000000     0          
O        O      0.187500000000     0.253140000000     0.750000000000     0          
O        O      0.184585000000     0.328605000000     0.882830000000     0          
O        O      0.174520000000     0.283825000000     0.926990000000     0          
O        O      0.189325000000     0.021245000000     0.447380000000     0          
O        O      0.175852500000     0.068635000000     0.485810000000     0          
O        O      0.197580000000     0.074605000000     0.419230000000     0          
O        O      0.185252500000     0.058030000000     0.353690000000     0          
O        O      0.200692500000     0.005760000000     0.381560000000     0          
O        O      0.175722500000     0.008980000000     0.316270000000     0          
O        O      0.187500000000     0.125000000000     0.500000000000     0          
O        O      0.174587500000     0.164855000000     0.450730000000     0          
O        O      0.177847500000     0.114385000000     0.370980000000     0          
O        O      0.197787500000     0.204785000000     0.202430000000     0          
O        O      0.187500000000     0.163015000000     0.250000000000     0          
O        O      0.179322500000     0.150600000000     0.181930000000     0          
O        O      0.187500000000     0.246860000000     0.250000000000     0          
O        O      0.190415000000     0.171395000000     0.382830000000     0          
O        O      0.200480000000     0.216175000000     0.426990000000     0          
O        O      0.185675000000     0.021245000000     0.052620000000     0          
O        O      0.199147500000     0.068635000000     0.014190000000     0          
O        O      0.177420000000     0.074605000000     0.080770000000     0          
O        O      0.189747500000     0.058030000000     0.146310000000     0          
O        O      0.174307500000     0.005760000000     0.118440000000     0          
O        O      0.199277500000     0.008980000000     0.183730000000     0          
O        O      0.187500000000     0.125000000000     0.000000000000     0          
O        O      0.200412500000     0.164855000000     0.049270000000     0          
O        O      0.197152500000     0.114385000000     0.129020000000     0          
O        O      0.177212500000     0.204785000000     0.297570000000     0          
O        O      0.195677500000     0.150600000000     0.318070000000     0          
O        O      0.184585000000     0.171395000000     0.117170000000     0          
O        O      0.174520000000     0.216175000000     0.073010000000     0          
O        O      0.189325000000     0.478755000000     0.552620000000     0          
O        O      0.175852500000     0.431365000000     0.514190000000     0          
O        O      0.197580000000     0.425395000000     0.580770000000     0          
O        O      0.185252500000     0.441970000000     0.646310000000     0          
O        O      0.200692500000     0.494240000000     0.618440000000     0          
O        O      0.175722500000     0.491020000000     0.683730000000     0          
O        O      0.187500000000     0.375000000000     0.500000000000     0          
O        O      0.174587500000     0.335145000000     0.549270000000     0          
O        O      0.177847500000     0.385615000000     0.629020000000     0          
O        O      0.197787500000     0.295215000000     0.797570000000     0          
O        O      0.179322500000     0.349400000000     0.818070000000     0          
O        O      0.190415000000     0.328605000000     0.617170000000     0          
O        O      0.200480000000     0.283825000000     0.573010000000     0          
O        O      0.189325000000     0.271245000000     0.052620000000     0          
O        O      0.175852500000     0.318635000000     0.014190000000     0          
O        O      0.197580000000     0.324605000000     0.080770000000     0          
O        O      0.125000000000     0.304290000000     0.065070000000     0          
O        O      0.185252500000     0.308030000000     0.146310000000     0          
O        O      0.200692500000     0.255760000000     0.118440000000     0          
O        O      0.175722500000     0.258980000000     0.183730000000     0          
O        O      0.125000000000     0.271355000000     0.132180000000     0          
O        O      0.125000000000     0.411180000000     0.995020000000     0          
O        O      0.174587500000     0.414855000000     0.049270000000     0          
O        O      0.177847500000     0.364385000000     0.129020000000     0          
O        O      0.000000000000     0.339500000000     0.130260000000     0          
O        O      0.197787500000     0.454785000000     0.297570000000     0          
O        O      0.187500000000     0.413015000000     0.250000000000     0          
O        O      0.179322500000     0.400600000000     0.318070000000     0          
O        O      0.125000000000     0.433695000000     0.285440000000     0          
O        O      0.187500000000     0.496860000000     0.250000000000     0          
O        O      0.125000000000     0.499065000000     0.206700000000     0          
O        O      0.190415000000     0.421395000000     0.117170000000     0          
O        O      0.125000000000     0.404290000000     0.150850000000     0          
O        O      0.200480000000     0.466175000000     0.073010000000     0          
O        O      0.000000000000     0.420400000000     0.071100000000     0          
O        O      0.125000000000     0.485710000000     0.069290000000     0          
O        O      0.185675000000     0.228755000000     0.552620000000     0          
O        O      0.199147500000     0.181365000000     0.514190000000     0          
O        O      0.177420000000     0.175395000000     0.580770000000     0          
O        O      0.000000000000     0.195710000000     0.565070000000     0          
O        O      0.189747500000     0.191970000000     0.646310000000     0          
O        O      0.174307500000     0.244240000000     0.618440000000     0          
O        O      0.199277500000     0.241020000000     0.683730000000     0          
O        O      0.000000000000     0.228645000000     0.632180000000     0          
O        O      0.000000000000     0.088820000000     0.495020000000     0          
O        O      0.200412500000     0.085145000000     0.549270000000     0          
O        O      0.197152500000     0.135615000000     0.629020000000     0          
O        O      0.125000000000     0.160500000000     0.630260000000     0          
O        O      0.177212500000     0.045215000000     0.797570000000     0          
O        O      0.187500000000     0.086985000000     0.750000000000     0          
O        O      0.195677500000     0.099400000000     0.818070000000     0          
O        O      0.000000000000     0.066305000000     0.785440000000     0          
O        O      0.187500000000     0.003140000000     0.750000000000     0          
O        O      0.000000000000     0.000935000000     0.706700000000     0          
O        O      0.184585000000     0.078605000000     0.617170000000     0          
O        O      0.000000000000     0.095710000000     0.650850000000     0          
O        O      0.174520000000     0.033825000000     0.573010000000     0          
O        O      0.125000000000     0.079600000000     0.571100000000     0          
O        O      0.000000000000     0.014290000000     0.569290000000     0          
O        O      0.189325000000     0.228755000000     0.947380000000     0          
O        O      0.175852500000     0.181365000000     0.985810000000     0          
O        O      0.197580000000     0.175395000000     0.919230000000     0          
O        O      0.125000000000     0.195710000000     0.934930000000     0          
O        O      0.185252500000     0.191970000000     0.853690000000     0          
O        O      0.200692500000     0.244240000000     0.881560000000     0          
O        O      0.175722500000     0.241020000000     0.816270000000     0          
O        O      0.125000000000     0.228645000000     0.867820000000     0          
O        O      0.125000000000     0.088820000000     0.004980000000     0          
O        O      0.174587500000     0.085145000000     0.950730000000     0          
O        O      0.177847500000     0.135615000000     0.870980000000     0          
O        O      0.000000000000     0.160500000000     0.869740000000     0          
O        O      0.197787500000     0.045215000000     0.702430000000     0          
O        O      0.179322500000     0.099400000000     0.681930000000     0          
O        O      0.125000000000     0.066305000000     0.714560000000     0          
O        O      0.125000000000     0.000935000000     0.793300000000     0          
O        O      0.190415000000     0.078605000000     0.882830000000     0          
O        O      0.125000000000     0.095710000000     0.849150000000     0          
O        O      0.200480000000     0.033825000000     0.926990000000     0          
O        O      0.000000000000     0.079600000000     0.928900000000     0          
O        O      0.125000000000     0.014290000000     0.930710000000     0          
O        O      0.185675000000     0.271245000000     0.447380000000     0          
O        O      0.199147500000     0.318635000000     0.485810000000     0          
O        O      0.177420000000     0.324605000000     0.419230000000     0          
O        O      0.000000000000     0.304290000000     0.434930000000     0          
O        O      0.189747500000     0.308030000000     0.353690000000     0          
O        O      0.174307500000     0.255760000000     0.381560000000     0          
O        O      0.199277500000     0.258980000000     0.316270000000     0          
O        O      0.000000000000     0.271355000000     0.367820000000     0          
O        O      0.000000000000     0.411180000000     0.504980000000     0          
O        O      0.200412500000     0.414855000000     0.450730000000     0          
O        O      0.197152500000     0.364385000000     0.370980000000     0          
O        O      0.125000000000     0.339500000000     0.369740000000     0          
O        O      0.177212500000     0.454785000000     0.202430000000     0          
O        O      0.195677500000     0.400600000000     0.181930000000     0          
O        O      0.000000000000     0.433695000000     0.214560000000     0          
O        O      0.000000000000     0.499065000000     0.293300000000     0          
O        O      0.184585000000     0.421395000000     0.382830000000     0          
O        O      0.000000000000     0.404290000000     0.349150000000     0          
O        O      0.174520000000     0.466175000000     0.426990000000     0          
O        O      0.125000000000     0.420400000000     0.428900000000     0          
O        O      0.000000000000     0.485710000000     0.430710000000     0          
O        O      0.060675000000     0.228755000000     0.947380000000     0          
O        O      0.074147500000     0.181365000000     0.985810000000     0          
O        O      0.052420000000     0.175395000000     0.919230000000     0          
O        O      0.064747500000     0.191970000000     0.853690000000     0          
O        O      0.049307500000     0.244240000000     0.881560000000     0          
O        O      0.074277500000     0.241020000000     0.816270000000     0          
O        O      0.075412500000     0.085145000000     0.950730000000     0          
O        O      0.072152500000     0.135615000000     0.870980000000     0          
O        O      0.052212500000     0.045215000000     0.702430000000     0          
O        O      0.062500000000     0.086985000000     0.750000000000     0          
O        O      0.070677500000     0.099400000000     0.681930000000     0          
O        O      0.062500000000     0.003140000000     0.750000000000     0          
O        O      0.059585000000     0.078605000000     0.882830000000     0          
O        O      0.049520000000     0.033825000000     0.926990000000     0          
O        O      0.064325000000     0.271245000000     0.447380000000     0          
O        O      0.050852500000     0.318635000000     0.485810000000     0          
O        O      0.072580000000     0.324605000000     0.419230000000     0          
O        O      0.060252500000     0.308030000000     0.353690000000     0          
O        O      0.075692500000     0.255760000000     0.381560000000     0          
O        O      0.050722500000     0.258980000000     0.316270000000     0          
O        O      0.049587500000     0.414855000000     0.450730000000     0          
O        O      0.052847500000     0.364385000000     0.370980000000     0          
O        O      0.072787500000     0.454785000000     0.202430000000     0          
O        O      0.062500000000     0.413015000000     0.250000000000     0          
O        O      0.054322500000     0.400600000000     0.181930000000     0          
O        O      0.062500000000     0.496860000000     0.250000000000     0          
O        O      0.065415000000     0.421395000000     0.382830000000     0          
O        O      0.075480000000     0.466175000000     0.426990000000     0          
O        O      0.060675000000     0.271245000000     0.052620000000     0          
O        O      0.074147500000     0.318635000000     0.014190000000     0          
O        O      0.052420000000     0.324605000000     0.080770000000     0          
O        O      0.064747500000     0.308030000000     0.146310000000     0          
O        O      0.049307500000     0.255760000000     0.118440000000     0          
O        O      0.074277500000     0.258980000000     0.183730000000     0          
O        O      0.075412500000     0.414855000000     0.049270000000     0          
O        O      0.072152500000     0.364385000000     0.129020000000     0          
O        O      0.052212500000     0.454785000000     0.297570000000     0          
O        O      0.070677500000     0.400600000000     0.318070000000     0          
O        O      0.059585000000     0.421395000000     0.117170000000     0          
O        O      0.049520000000     0.466175000000     0.073010000000     0          
O        O      0.064325000000     0.228755000000     0.552620000000     0          
O        O      0.050852500000     0.181365000000     0.514190000000     0          
O        O      0.072580000000     0.175395000000     0.580770000000     0          
O        O      0.060252500000     0.191970000000     0.646310000000     0          
O        O      0.075692500000     0.244240000000     0.618440000000     0          
O        O      0.050722500000     0.241020000000     0.683730000000     0          
O        O      0.049587500000     0.085145000000     0.549270000000     0          
O        O      0.052847500000     0.135615000000     0.629020000000     0          
O        O      0.072787500000     0.045215000000     0.797570000000     0          
O        O      0.054322500000     0.099400000000     0.818070000000     0          
O        O      0.065415000000     0.078605000000     0.617170000000     0          
O        O      0.075480000000     0.033825000000     0.573010000000     0          
O        O      0.064325000000     0.521245000000     0.052620000000     0          
O        O      0.050852500000     0.568635000000     0.014190000000     0          
O        O      0.072580000000     0.574605000000     0.080770000000     0          
O        O      0.000000000000     0.554290000000     0.065070000000     0          
O        O      0.060252500000     0.558030000000     0.146310000000     0          
O        O      0.075692500000     0.505760000000     0.118440000000     0          
O        O      0.050722500000     0.508980000000     0.183730000000     0          
O        O      0.000000000000     0.521355000000     0.132180000000     0          
O        O      0.062500000000     0.625000000000     0.000000000000     0          
O        O      0.000000000000     0.661180000000     0.995020000000     0          
O        O      0.049587500000     0.664855000000     0.049270000000     0          
O        O      0.052847500000     0.614385000000     0.129020000000     0          
O        O      0.125000000000     0.589500000000     0.130260000000     0          
O        O      0.072787500000     0.704785000000     0.297570000000     0          
O        O      0.062500000000     0.663015000000     0.250000000000     0          
O        O      0.054322500000     0.650600000000     0.318070000000     0          
O        O      0.000000000000     0.683695000000     0.285440000000     0          
O        O      0.062500000000     0.746860000000     0.250000000000     0          
O        O      0.000000000000     0.749065000000     0.206700000000     0          
O        O      0.065415000000     0.671395000000     0.117170000000     0          
O        O      0.000000000000     0.654290000000     0.150850000000     0          
O        O      0.075480000000     0.716175000000     0.073010000000     0          
O        O      0.125000000000     0.670400000000     0.071100000000     0          
O        O      0.000000000000     0.735710000000     0.069290000000     0          
O        O      0.060675000000     0.978755000000     0.552620000000     0          
O        O      0.074147500000     0.931365000000     0.514190000000     0          
O        O      0.052420000000     0.925395000000     0.580770000000     0          
O        O      0.125000000000     0.945710000000     0.565070000000     0          
O        O      0.064747500000     0.941970000000     0.646310000000     0          
O        O      0.049307500000     0.994240000000     0.618440000000     0          
O        O      0.074277500000     0.991020000000     0.683730000000     0          
O        O      0.125000000000     0.978645000000     0.632180000000     0          
O        O      0.062500000000     0.875000000000     0.500000000000     0          
O        O      0.125000000000     0.838820000000     0.495020000000     0          
O        O      0.075412500000     0.835145000000     0.549270000000     0          
O        O      0.072152500000     0.885615000000     0.629020000000     0          
O        O      0.000000000000     0.910500000000     0.630260000000     0          
O        O      0.052212500000     0.795215000000     0.797570000000     0          
O        O      0.062500000000     0.836985000000     0.750000000000     0          
O        O      0.070677500000     0.849400000000     0.818070000000     0          
O        O      0.125000000000     0.816305000000     0.785440000000     0          
O        O      0.062500000000     0.753140000000     0.750000000000     0          
O        O      0.125000000000     0.750935000000     0.706700000000     0          
O        O      0.059585000000     0.828605000000     0.617170000000     0          
O        O      0.125000000000     0.845710000000     0.650850000000     0          
O        O      0.049520000000     0.783825000000     0.573010000000     0          
O        O      0.000000000000     0.829600000000     0.571100000000     0          
O        O      0.125000000000     0.764290000000     0.569290000000     0          
O        O      0.064325000000     0.978755000000     0.947380000000     0          
O        O      0.050852500000     0.931365000000     0.985810000000     0          
O        O      0.072580000000     0.925395000000     0.919230000000     0          
O        O      0.000000000000     0.945710000000     0.934930000000     0          
O        O      0.060252500000     0.941970000000     0.853690000000     0          
O        O      0.075692500000     0.994240000000     0.881560000000     0          
O        O      0.050722500000     0.991020000000     0.816270000000     0          
O        O      0.000000000000     0.978645000000     0.867820000000     0          
O        O      0.062500000000     0.875000000000     0.000000000000     0          
O        O      0.000000000000     0.838820000000     0.004980000000     0          
O        O      0.049587500000     0.835145000000     0.950730000000     0          
O        O      0.052847500000     0.885615000000     0.870980000000     0          
O        O      0.125000000000     0.910500000000     0.869740000000     0          
O        O      0.072787500000     0.795215000000     0.702430000000     0          
O        O      0.054322500000     0.849400000000     0.681930000000     0          
O        O      0.000000000000     0.816305000000     0.714560000000     0          
O        O      0.000000000000     0.750935000000     0.793300000000     0          
O        O      0.065415000000     0.828605000000     0.882830000000     0          
O        O      0.000000000000     0.845710000000     0.849150000000     0          
O        O      0.075480000000     0.783825000000     0.926990000000     0          
O        O      0.125000000000     0.829600000000     0.928900000000     0          
O        O      0.000000000000     0.764290000000     0.930710000000     0          
O        O      0.060675000000     0.521245000000     0.447380000000     0          
O        O      0.074147500000     0.568635000000     0.485810000000     0          
O        O      0.052420000000     0.574605000000     0.419230000000     0          
O        O      0.125000000000     0.554290000000     0.434930000000     0          
O        O      0.064747500000     0.558030000000     0.353690000000     0          
O        O      0.049307500000     0.505760000000     0.381560000000     0          
O        O      0.074277500000     0.508980000000     0.316270000000     0          
O        O      0.125000000000     0.521355000000     0.367820000000     0          
O        O      0.062500000000     0.625000000000     0.500000000000     0          
O        O      0.125000000000     0.661180000000     0.504980000000     0          
O        O      0.075412500000     0.664855000000     0.450730000000     0          
O        O      0.072152500000     0.614385000000     0.370980000000     0          
O        O      0.000000000000     0.589500000000     0.369740000000     0          
O        O      0.052212500000     0.704785000000     0.202430000000     0          
O        O      0.070677500000     0.650600000000     0.181930000000     0          
O        O      0.125000000000     0.683695000000     0.214560000000     0          
O        O      0.125000000000     0.749065000000     0.293300000000     0          
O        O      0.059585000000     0.671395000000     0.382830000000     0          
O        O      0.125000000000     0.654290000000     0.349150000000     0          
O        O      0.049520000000     0.716175000000     0.426990000000     0          
O        O      0.000000000000     0.670400000000     0.428900000000     0          
O        O      0.125000000000     0.735710000000     0.430710000000     0          
O        O      0.185675000000     0.978755000000     0.947380000000     0          
O        O      0.199147500000     0.931365000000     0.985810000000     0          
O        O      0.177420000000     0.925395000000     0.919230000000     0          
O        O      0.189747500000     0.941970000000     0.853690000000     0          
O        O      0.174307500000     0.994240000000     0.881560000000     0          
O        O      0.199277500000     0.991020000000     0.816270000000     0          
O        O      0.187500000000     0.875000000000     0.000000000000     0          
O        O      0.200412500000     0.835145000000     0.950730000000     0          
O        O      0.197152500000     0.885615000000     0.870980000000     0          
O        O      0.177212500000     0.795215000000     0.702430000000     0          
O        O      0.187500000000     0.836985000000     0.750000000000     0          
O        O      0.195677500000     0.849400000000     0.681930000000     0          
O        O      0.187500000000     0.753140000000     0.750000000000     0          
O        O      0.184585000000     0.828605000000     0.882830000000     0          
O        O      0.174520000000     0.783825000000     0.926990000000     0          
O        O      0.189325000000     0.521245000000     0.447380000000     0          
O        O      0.175852500000     0.568635000000     0.485810000000     0          
O        O      0.197580000000     0.574605000000     0.419230000000     0          
O        O      0.185252500000     0.558030000000     0.353690000000     0          
O        O      0.200692500000     0.505760000000     0.381560000000     0          
O        O      0.175722500000     0.508980000000     0.316270000000     0          
O        O      0.187500000000     0.625000000000     0.500000000000     0          
O        O      0.174587500000     0.664855000000     0.450730000000     0          
O        O      0.177847500000     0.614385000000     0.370980000000     0          
O        O      0.197787500000     0.704785000000     0.202430000000     0          
O        O      0.187500000000     0.663015000000     0.250000000000     0          
O        O      0.179322500000     0.650600000000     0.181930000000     0          
O        O      0.187500000000     0.746860000000     0.250000000000     0          
O        O      0.190415000000     0.671395000000     0.382830000000     0          
O        O      0.200480000000     0.716175000000     0.426990000000     0          
O        O      0.185675000000     0.521245000000     0.052620000000     0          
O        O      0.199147500000     0.568635000000     0.014190000000     0          
O        O      0.177420000000     0.574605000000     0.080770000000     0          
O        O      0.189747500000     0.558030000000     0.146310000000     0          
O        O      0.174307500000     0.505760000000     0.118440000000     0          
O        O      0.199277500000     0.508980000000     0.183730000000     0          
O        O      0.187500000000     0.625000000000     0.000000000000     0          
O        O      0.200412500000     0.664855000000     0.049270000000     0          
O        O      0.197152500000     0.614385000000     0.129020000000     0          
O        O      0.177212500000     0.704785000000     0.297570000000     0          
O        O      0.195677500000     0.650600000000     0.318070000000     0          
O        O      0.184585000000     0.671395000000     0.117170000000     0          
O        O      0.174520000000     0.716175000000     0.073010000000     0          
O        O      0.189325000000     0.978755000000     0.552620000000     0          
O        O      0.175852500000     0.931365000000     0.514190000000     0          
O        O      0.197580000000     0.925395000000     0.580770000000     0          
O        O      0.185252500000     0.941970000000     0.646310000000     0          
O        O      0.200692500000     0.994240000000     0.618440000000     0          
O        O      0.175722500000     0.991020000000     0.683730000000     0          
O        O      0.187500000000     0.875000000000     0.500000000000     0          
O        O      0.174587500000     0.835145000000     0.549270000000     0          
O        O      0.177847500000     0.885615000000     0.629020000000     0          
O        O      0.197787500000     0.795215000000     0.797570000000     0          
O        O      0.179322500000     0.849400000000     0.818070000000     0          
O        O      0.190415000000     0.828605000000     0.617170000000     0          
O        O      0.200480000000     0.783825000000     0.573010000000     0          
O        O      0.189325000000     0.771245000000     0.052620000000     0          
O        O      0.175852500000     0.818635000000     0.014190000000     0          
O        O      0.197580000000     0.824605000000     0.080770000000     0          
O        O      0.125000000000     0.804290000000     0.065070000000     0          
O        O      0.185252500000     0.808030000000     0.146310000000     0          
O        O      0.200692500000     0.755760000000     0.118440000000     0          
O        O      0.175722500000     0.758980000000     0.183730000000     0          
O        O      0.125000000000     0.771355000000     0.132180000000     0          
O        O      0.125000000000     0.911180000000     0.995020000000     0          
O        O      0.174587500000     0.914855000000     0.049270000000     0          
O        O      0.177847500000     0.864385000000     0.129020000000     0          
O        O      0.000000000000     0.839500000000     0.130260000000     0          
O        O      0.197787500000     0.954785000000     0.297570000000     0          
O        O      0.187500000000     0.913015000000     0.250000000000     0          
O        O      0.179322500000     0.900600000000     0.318070000000     0          
O        O      0.125000000000     0.933695000000     0.285440000000     0          
O        O      0.187500000000     0.996860000000     0.250000000000     0          
O        O      0.125000000000     0.999065000000     0.206700000000     0          
O        O      0.190415000000     0.921395000000     0.117170000000     0          
O        O      0.125000000000     0.904290000000     0.150850000000     0          
O        O      0.200480000000     0.966175000000     0.073010000000     0          
O        O      0.000000000000     0.920400000000     0.071100000000     0          
O        O      0.125000000000     0.985710000000     0.069290000000     0          
O        O      0.185675000000     0.728755000000     0.552620000000     0          
O        O      0.199147500000     0.681365000000     0.514190000000     0          
O        O      0.177420000000     0.675395000000     0.580770000000     0          
O        O      0.000000000000     0.695710000000     0.565070000000     0          
O        O      0.189747500000     0.691970000000     0.646310000000     0          
O        O      0.174307500000     0.744240000000     0.618440000000     0          
O        O      0.199277500000     0.741020000000     0.683730000000     0          
O        O      0.000000000000     0.728645000000     0.632180000000     0          
O        O      0.000000000000     0.588820000000     0.495020000000     0          
O        O      0.200412500000     0.585145000000     0.549270000000     0          
O        O      0.197152500000     0.635615000000     0.629020000000     0          
O        O      0.125000000000     0.660500000000     0.630260000000     0          
O        O      0.177212500000     0.545215000000     0.797570000000     0          
O        O      0.187500000000     0.586985000000     0.750000000000     0          
O        O      0.195677500000     0.599400000000     0.818070000000     0          
O        O      0.000000000000     0.566305000000     0.785440000000     0          
O        O      0.187500000000     0.503140000000     0.750000000000     0          
O        O      0.000000000000     0.500935000000     0.706700000000     0          
O        O      0.184585000000     0.578605000000     0.617170000000     0          
O        O      0.000000000000     0.595710000000     0.650850000000     0          
O        O      0.174520000000     0.533825000000     0.573010000000     0          
O        O      0.125000000000     0.579600000000     0.571100000000     0          
O        O      0.000000000000     0.514290000000     0.569290000000     0          
O        O      0.189325000000     0.728755000000     0.947380000000     0          
O        O      0.175852500000     0.681365000000     0.985810000000     0          
O        O      0.197580000000     0.675395000000     0.919230000000     0          
O        O      0.125000000000     0.695710000000     0.934930000000     0          
O        O      0.185252500000     0.691970000000     0.853690000000     0          
O        O      0.200692500000     0.744240000000     0.881560000000     0          
O        O      0.175722500000     0.741020000000     0.816270000000     0          
O        O      0.125000000000     0.728645000000     0.867820000000     0          
O        O      0.125000000000     0.588820000000     0.004980000000     0          
O        O      0.174587500000     0.585145000000     0.950730000000     0          
O        O      0.177847500000     0.635615000000     0.870980000000     0          
O        O      0.000000000000     0.660500000000     0.869740000000     0          
O        O      0.197787500000     0.545215000000     0.702430000000     0          
O        O      0.179322500000     0.599400000000     0.681930000000     0          
O        O      0.125000000000     0.566305000000     0.714560000000     0          
O        O      0.125000000000     0.500935000000     0.793300000000     0          
O        O      0.190415000000     0.578605000000     0.882830000000     0          
O        O      0.125000000000     0.595710000000     0.849150000000     0          
O        O      0.200480000000     0.533825000000     0.926990000000     0          
O        O      0.000000000000     0.579600000000     0.928900000000     0          
O        O      0.125000000000     0.514290000000     0.930710000000     0          
O        O      0.185675000000     0.771245000000     0.447380000000     0          
O        O      0.199147500000     0.818635000000     0.485810000000     0          
O        O      0.177420000000     0.824605000000     0.419230000000     0          
O        O      0.000000000000     0.804290000000     0.434930000000     0          
O        O      0.189747500000     0.808030000000     0.353690000000     0          
O        O      0.174307500000     0.755760000000     0.381560000000     0          
O        O      0.199277500000     0.758980000000     0.316270000000     0          
O        O      0.000000000000     0.771355000000     0.367820000000     0          
O        O      0.000000000000     0.911180000000     0.504980000000     0          
O        O      0.200412500000     0.914855000000     0.450730000000     0          
O        O      0.197152500000     0.864385000000     0.370980000000     0          
O        O      0.125000000000     0.839500000000     0.369740000000     0          
O        O      0.177212500000     0.954785000000     0.202430000000     0          
O        O      0.195677500000     0.900600000000     0.181930000000     0          
O        O      0.000000000000     0.933695000000     0.214560000000     0          
O        O      0.000000000000     0.999065000000     0.293300000000     0          
O        O      0.184585000000     0.921395000000     0.382830000000     0          
O        O      0.000000000000     0.904290000000     0.349150000000     0          
O        O      0.174520000000     0.966175000000     0.426990000000     0          
O        O      0.125000000000     0.920400000000     0.428900000000     0          
O        O      0.000000000000     0.985710000000     0.430710000000     0          
O        O      0.060675000000     0.728755000000     0.947380000000     0          
O        O      0.074147500000     0.681365000000     0.985810000000     0          
O        O      0.052420000000     0.675395000000     0.919230000000     0          
O        O      0.064747500000     0.691970000000     0.853690000000     0          
O        O      0.049307500000     0.744240000000     0.881560000000     0          
O        O      0.074277500000     0.741020000000     0.816270000000     0          
O        O      0.075412500000     0.585145000000     0.950730000000     0          
O        O      0.072152500000     0.635615000000     0.870980000000     0          
O        O      0.052212500000     0.545215000000     0.702430000000     0          
O        O      0.062500000000     0.586985000000     0.750000000000     0          
O        O      0.070677500000     0.599400000000     0.681930000000     0          
O        O      0.062500000000     0.503140000000     0.750000000000     0          
O        O      0.059585000000     0.578605000000     0.882830000000     0          
O        O      0.049520000000     0.533825000000     0.926990000000     0          
O        O      0.064325000000     0.771245000000     0.447380000000     0          
O        O      0.050852500000     0.818635000000     0.485810000000     0          
O        O      0.072580000000     0.824605000000     0.419230000000     0          
O        O      0.060252500000     0.808030000000     0.353690000000     0          
O        O      0.075692500000     0.755760000000     0.381560000000     0          
O        O      0.050722500000     0.758980000000     0.316270000000     0          
O        O      0.049587500000     0.914855000000     0.450730000000     0          
O        O      0.052847500000     0.864385000000     0.370980000000     0          
O        O      0.072787500000     0.954785000000     0.202430000000     0          
O        O      0.062500000000     0.913015000000     0.250000000000     0          
O        O      0.054322500000     0.900600000000     0.181930000000     0          
O        O      0.062500000000     0.996860000000     0.250000000000     0          
O        O      0.065415000000     0.921395000000     0.382830000000     0          
O        O      0.075480000000     0.966175000000     0.426990000000     0          
O        O      0.060675000000     0.771245000000     0.052620000000     0          
O        O      0.074147500000     0.818635000000     0.014190000000     0          
O        O      0.052420000000     0.824605000000     0.080770000000     0          
O        O      0.064747500000     0.808030000000     0.146310000000     0          
O        O      0.049307500000     0.755760000000     0.118440000000     0          
O        O      0.074277500000     0.758980000000     0.183730000000     0          
O        O      0.075412500000     0.914855000000     0.049270000000     0          
O        O      0.072152500000     0.864385000000     0.129020000000     0          
O        O      0.052212500000     0.954785000000     0.297570000000     0          
O        O      0.070677500000     0.900600000000     0.318070000000     0          
O        O      0.059585000000     0.921395000000     0.117170000000     0          
O        O      0.049520000000     0.966175000000     0.073010000000     0          
O        O      0.064325000000     0.728755000000     0.552620000000     0          
O        O      0.050852500000     0.681365000000     0.514190000000     0          
O        O      0.072580000000     0.675395000000     0.580770000000     0          
O        O      0.060252500000     0.691970000000     0.646310000000     0          
O        O      0.075692500000     0.744240000000     0.618440000000     0          
O        O      0.050722500000     0.741020000000     0.683730000000     0          
O        O      0.049587500000     0.585145000000     0.549270000000     0          
O        O      0.052847500000     0.635615000000     0.629020000000     0          
O        O      0.072787500000     0.545215000000     0.797570000000     0          
O        O      0.054322500000     0.599400000000     0.818070000000     0          
O        O      0.065415000000     0.578605000000     0.617170000000     0          
O        O      0.075480000000     0.533825000000     0.573010000000     0          
O        O      0.314325000000     0.021245000000     0.052620000000     0          
O        O      0.300852500000     0.068635000000     0.014190000000     0          
O        O      0.322580000000     0.074605000000     0.080770000000     0          
O        O      0.250000000000     0.054290000000     0.065070000000     0          
O        O      0.310252500000     0.058030000000     0.146310000000     0          
O        O      0.325692500000     0.005760000000     0.118440000000     0          
O        O      0.300722500000     0.008980000000     0.183730000000     0          
O        O      0.250000000000     0.021355000000     0.132180000000     0          
O        O      0.312500000000     0.125000000000     0.000000000000     0          
O        O      0.250000000000     0.161180000000     0.995020000000     0          
O        O      0.299587500000     0.164855000000     0.049270000000     0          
O        O      0.302847500000     0.114385000000     0.129020000000     0          
O        O      0.375000000000     0.089500000000     0.130260000000     0          
O        O      0.322787500000     0.204785000000     0.297570000000     0          
O        O      0.312500000000     0.163015000000     0.250000000000     0          
O        O      0.304322500000     0.150600000000     0.318070000000     0          
O        O      0.250000000000     0.183695000000     0.285440000000     0          
O        O      0.312500000000     0.246860000000     0.250000000000     0          
O        O      0.250000000000     0.249065000000     0.206700000000     0          
O        O      0.315415000000     0.171395000000     0.117170000000     0          
O        O      0.250000000000     0.154290000000     0.150850000000     0          
O        O      0.325480000000     0.216175000000     0.073010000000     0          
O        O      0.375000000000     0.170400000000     0.071100000000     0          
O        O      0.250000000000     0.235710000000     0.069290000000     0          
O        O      0.310675000000     0.478755000000     0.552620000000     0          
O        O      0.324147500000     0.431365000000     0.514190000000     0          
O        O      0.302420000000     0.425395000000     0.580770000000     0          
O        O      0.375000000000     0.445710000000     0.565070000000     0          
O        O      0.314747500000     0.441970000000     0.646310000000     0          
O        O      0.299307500000     0.494240000000     0.618440000000     0          
O        O      0.324277500000     0.491020000000     0.683730000000     0          
O        O      0.375000000000     0.478645000000     0.632180000000     0          
O        O      0.312500000000     0.375000000000     0.500000000000     0          
O        O      0.375000000000     0.338820000000     0.495020000000     0          
O        O      0.325412500000     0.335145000000     0.549270000000     0          
O        O      0.322152500000     0.385615000000     0.629020000000     0          
O        O      0.250000000000     0.410500000000     0.630260000000     0          
O        O      0.302212500000     0.295215000000     0.797570000000     0          
O        O      0.312500000000     0.336985000000     0.750000000000     0          
O        O      0.320677500000     0.349400000000     0.818070000000     0          
O        O      0.375000000000     0.316305000000     0.785440000000     0          
O        O      0.312500000000     0.253140000000     0.750000000000     0          
O        O      0.375000000000     0.250935000000     0.706700000000     0          
O        O      0.309585000000     0.328605000000     0.617170000000     0          
O        O      0.375000000000     0.345710000000     0.650850000000     0          
O        O      0.299520000000     0.283825000000     0.573010000000     0          
O        O      0.250000000000     0.329600000000     0.571100000000     0          
O        O      0.375000000000     0.264290000000     0.569290000000     0          
O        O      0.314325000000     0.478755000000     0.947380000000     0          
O        O      0.300852500000     0.431365000000     0.985810000000     0          
O        O      0.322580000000     0.425395000000     0.919230000000     0          
O        O      0.250000000000     0.445710000000     0.934930000000     0          
O        O      0.310252500000     0.441970000000     0.853690000000     0          
O        O      0.325692500000     0.494240000000     0.881560000000     0          
O        O      0.300722500000     0.491020000000     0.816270000000     0          
O        O      0.250000000000     0.478645000000     0.867820000000     0          
O        O      0.312500000000     0.375000000000     0.000000000000     0          
O        O      0.250000000000     0.338820000000     0.004980000000     0          
O        O      0.299587500000     0.335145000000     0.950730000000     0          
O        O      0.302847500000     0.385615000000     0.870980000000     0          
O        O      0.375000000000     0.410500000000     0.869740000000     0          
O        O      0.322787500000     0.295215000000     0.702430000000     0          
O        O      0.304322500000     0.349400000000     0.681930000000     0          
O        O      0.250000000000     0.316305000000     0.714560000000     0          
O        O      0.250000000000     0.250935000000     0.793300000000     0          
O        O      0.315415000000     0.328605000000     0.882830000000     0          
O        O      0.250000000000     0.345710000000     0.849150000000     0          
O        O      0.325480000000     0.283825000000     0.926990000000     0          
O        O      0.375000000000     0.329600000000     0.928900000000     0          
O        O      0.250000000000     0.264290000000     0.930710000000     0          
O        O      0.310675000000     0.021245000000     0.447380000000     0          
O        O      0.324147500000     0.068635000000     0.485810000000     0          
O        O      0.302420000000     0.074605000000     0.419230000000     0          
O        O      0.375000000000     0.054290000000     0.434930000000     0          
O        O      0.314747500000     0.058030000000     0.353690000000     0          
O        O      0.299307500000     0.005760000000     0.381560000000     0          
O        O      0.324277500000     0.008980000000     0.316270000000     0          
O        O      0.375000000000     0.021355000000     0.367820000000     0          
O        O      0.312500000000     0.125000000000     0.500000000000     0          
O        O      0.375000000000     0.161180000000     0.504980000000     0          
O        O      0.325412500000     0.164855000000     0.450730000000     0          
O        O      0.322152500000     0.114385000000     0.370980000000     0          
O        O      0.250000000000     0.089500000000     0.369740000000     0          
O        O      0.302212500000     0.204785000000     0.202430000000     0          
O        O      0.320677500000     0.150600000000     0.181930000000     0          
O        O      0.375000000000     0.183695000000     0.214560000000     0          
O        O      0.375000000000     0.249065000000     0.293300000000     0          
O        O      0.309585000000     0.171395000000     0.382830000000     0          
O        O      0.375000000000     0.154290000000     0.349150000000     0          
O        O      0.299520000000     0.216175000000     0.426990000000     0          
O        O      0.250000000000     0.170400000000     0.428900000000     0          
O        O      0.375000000000     0.235710000000     0.430710000000     0          
O        O      0.435675000000     0.478755000000     0.947380000000     0          
O        O      0.449147500000     0.431365000000     0.985810000000     0          
O        O      0.427420000000     0.425395000000     0.919230000000     0          
O        O      0.439747500000     0.441970000000     0.853690000000     0          
O        O      0.424307500000     0.494240000000     0.881560000000     0          
O        O      0.449277500000     0.491020000000     0.816270000000     0          
O        O      0.437500000000     0.375000000000     0.000000000000     0          
O        O      0.450412500000     0.335145000000     0.950730000000     0          
O        O      0.447152500000     0.385615000000     0.870980000000     0          
O        O      0.427212500000     0.295215000000     0.702430000000     0          
O        O      0.437500000000     0.336985000000     0.750000000000     0          
O        O      0.445677500000     0.349400000000     0.681930000000     0          
O        O      0.437500000000     0.253140000000     0.750000000000     0          
O        O      0.434585000000     0.328605000000     0.882830000000     0          
O        O      0.424520000000     0.283825000000     0.926990000000     0          
O        O      0.439325000000     0.021245000000     0.447380000000     0          
O        O      0.425852500000     0.068635000000     0.485810000000     0          
O        O      0.447580000000     0.074605000000     0.419230000000     0          
O        O      0.435252500000     0.058030000000     0.353690000000     0          
O        O      0.450692500000     0.005760000000     0.381560000000     0          
O        O      0.425722500000     0.008980000000     0.316270000000     0          
O        O      0.437500000000     0.125000000000     0.500000000000     0          
O        O      0.424587500000     0.164855000000     0.450730000000     0          
O        O      0.427847500000     0.114385000000     0.370980000000     0          
O        O      0.447787500000     0.204785000000     0.202430000000     0          
O        O      0.437500000000     0.163015000000     0.250000000000     0          
O        O      0.429322500000     0.150600000000     0.181930000000     0          
O        O      0.437500000000     0.246860000000     0.250000000000     0          
O        O      0.440415000000     0.171395000000     0.382830000000     0          
O        O      0.450480000000     0.216175000000     0.426990000000     0          
O        O      0.435675000000     0.021245000000     0.052620000000     0          
O        O      0.449147500000     0.068635000000     0.014190000000     0          
O        O      0.427420000000     0.074605000000     0.080770000000     0          
O        O      0.439747500000     0.058030000000     0.146310000000     0          
O        O      0.424307500000     0.005760000000     0.118440000000     0          
O        O      0.449277500000     0.008980000000     0.183730000000     0          
O        O      0.437500000000     0.125000000000     0.000000000000     0          
O        O      0.450412500000     0.164855000000     0.049270000000     0          
O        O      0.447152500000     0.114385000000     0.129020000000     0          
O        O      0.427212500000     0.204785000000     0.297570000000     0          
O        O      0.445677500000     0.150600000000     0.318070000000     0          
O        O      0.434585000000     0.171395000000     0.117170000000     0          
O        O      0.424520000000     0.216175000000     0.073010000000     0          
O        O      0.439325000000     0.478755000000     0.552620000000     0          
O        O      0.425852500000     0.431365000000     0.514190000000     0          
O        O      0.447580000000     0.425395000000     0.580770000000     0          
O        O      0.435252500000     0.441970000000     0.646310000000     0          
O        O      0.450692500000     0.494240000000     0.618440000000     0          
O        O      0.425722500000     0.491020000000     0.683730000000     0          
O        O      0.437500000000     0.375000000000     0.500000000000     0          
O        O      0.424587500000     0.335145000000     0.549270000000     0          
O        O      0.427847500000     0.385615000000     0.629020000000     0          
O        O      0.447787500000     0.295215000000     0.797570000000     0          
O        O      0.429322500000     0.349400000000     0.818070000000     0          
O        O      0.440415000000     0.328605000000     0.617170000000     0          
O        O      0.450480000000     0.283825000000     0.573010000000     0          
O        O      0.439325000000     0.271245000000     0.052620000000     0          
O        O      0.425852500000     0.318635000000     0.014190000000     0          
O        O      0.447580000000     0.324605000000     0.080770000000     0          
O        O      0.375000000000     0.304290000000     0.065070000000     0          
O        O      0.435252500000     0.308030000000     0.146310000000     0          
O        O      0.450692500000     0.255760000000     0.118440000000     0          
O        O      0.425722500000     0.258980000000     0.183730000000     0          
O        O      0.375000000000     0.271355000000     0.132180000000     0          
O        O      0.375000000000     0.411180000000     0.995020000000     0          
O        O      0.424587500000     0.414855000000     0.049270000000     0          
O        O      0.427847500000     0.364385000000     0.129020000000     0          
O        O      0.250000000000     0.339500000000     0.130260000000     0          
O        O      0.447787500000     0.454785000000     0.297570000000     0          
O        O      0.437500000000     0.413015000000     0.250000000000     0          
O        O      0.429322500000     0.400600000000     0.318070000000     0          
O        O      0.375000000000     0.433695000000     0.285440000000     0          
O        O      0.437500000000     0.496860000000     0.250000000000     0          
O        O      0.375000000000     0.499065000000     0.206700000000     0          
O        O      0.440415000000     0.421395000000     0.117170000000     0          
O        O      0.375000000000     0.404290000000     0.150850000000     0          
O        O      0.450480000000     0.466175000000     0.073010000000     0          
O        O      0.250000000000     0.420400000000     0.071100000000     0          
O        O      0.375000000000     0.485710000000     0.069290000000     0          
O        O      0.435675000000     0.228755000000     0.552620000000     0          
O        O      0.449147500000     0.181365000000     0.514190000000     0          
O        O      0.427420000000     0.175395000000     0.580770000000     0          
O        O      0.250000000000     0.195710000000     0.565070000000     0          
O        O      0.439747500000     0.191970000000     0.646310000000     0          
O        O      0.424307500000     0.244240000000     0.618440000000     0          
O        O      0.449277500000     0.241020000000     0.683730000000     0          
O        O      0.250000000000     0.228645000000     0.632180000000     0          
O        O      0.250000000000     0.088820000000     0.495020000000     0          
O        O      0.450412500000     0.085145000000     0.549270000000     0          
O        O      0.447152500000     0.135615000000     0.629020000000     0          
O        O      0.375000000000     0.160500000000     0.630260000000     0          
O        O      0.427212500000     0.045215000000     0.797570000000     0          
O        O      0.437500000000     0.086985000000     0.750000000000     0          
O        O      0.445677500000     0.099400000000     0.818070000000     0          
O        O      0.250000000000     0.066305000000     0.785440000000     0          
O        O      0.437500000000     0.003140000000     0.750000000000     0          
O        O      0.250000000000     0.000935000000     0.706700000000     0          
O        O      0.434585000000     0.078605000000     0.617170000000     0          
O        O      0.250000000000     0.095710000000     0.650850000000     0          
O        O      0.424520000000     0.033825000000     0.573010000000     0          
O        O      0.375000000000     0.079600000000     0.571100000000     0          
O        O      0.250000000000     0.014290000000     0.569290000000     0          
O        O      0.439325000000     0.228755000000     0.947380000000     0          
O        O      0.425852500000     0.181365000000     0.985810000000     0          
O        O      0.447580000000     0.175395000000     0.919230000000     0          
O        O      0.375000000000     0.195710000000     0.934930000000     0          
O        O      0.435252500000     0.191970000000     0.853690000000     0          
O        O      0.450692500000     0.244240000000     0.881560000000     0          
O        O      0.425722500000     0.241020000000     0.816270000000     0          
O        O      0.375000000000     0.228645000000     0.867820000000     0          
O        O      0.375000000000     0.088820000000     0.004980000000     0          
O        O      0.424587500000     0.085145000000     0.950730000000     0          
O        O      0.427847500000     0.135615000000     0.870980000000     0          
O        O      0.250000000000     0.160500000000     0.869740000000     0          
O        O      0.447787500000     0.045215000000     0.702430000000     0          
O        O      0.429322500000     0.099400000000     0.681930000000     0          
O        O      0.375000000000     0.066305000000     0.714560000000     0          
O        O      0.375000000000     0.000935000000     0.793300000000     0          
O        O      0.440415000000     0.078605000000     0.882830000000     0          
O        O      0.375000000000     0.095710000000     0.849150000000     0          
O        O      0.450480000000     0.033825000000     0.926990000000     0          
O        O      0.250000000000     0.079600000000     0.928900000000     0          
O        O      0.375000000000     0.014290000000     0.930710000000     0          
O        O      0.435675000000     0.271245000000     0.447380000000     0          
O        O      0.449147500000     0.318635000000     0.485810000000     0          
O        O      0.427420000000     0.324605000000     0.419230000000     0          
O        O      0.250000000000     0.304290000000     0.434930000000     0          
O        O      0.439747500000     0.308030000000     0.353690000000     0          
O        O      0.424307500000     0.255760000000     0.381560000000     0          
O        O      0.449277500000     0.258980000000     0.316270000000     0          
O        O      0.250000000000     0.271355000000     0.367820000000     0          
O        O      0.250000000000     0.411180000000     0.504980000000     0          
O        O      0.450412500000     0.414855000000     0.450730000000     0          
O        O      0.447152500000     0.364385000000     0.370980000000     0          
O        O      0.375000000000     0.339500000000     0.369740000000     0          
O        O      0.427212500000     0.454785000000     0.202430000000     0          
O        O      0.445677500000     0.400600000000     0.181930000000     0          
O        O      0.250000000000     0.433695000000     0.214560000000     0          
O        O      0.250000000000     0.499065000000     0.293300000000     0          
O        O      0.434585000000     0.421395000000     0.382830000000     0          
O        O      0.250000000000     0.404290000000     0.349150000000     0          
O        O      0.424520000000     0.466175000000     0.426990000000     0          
O        O      0.375000000000     0.420400000000     0.428900000000     0          
O        O      0.250000000000     0.485710000000     0.430710000000     0          
O        O      0.310675000000     0.228755000000     0.947380000000     0          
O        O      0.324147500000     0.181365000000     0.985810000000     0          
O        O      0.302420000000     0.175395000000     0.919230000000     0          
O        O      0.314747500000     0.191970000000     0.853690000000     0          
O        O      0.299307500000     0.244240000000     0.881560000000     0          
O        O      0.324277500000     0.241020000000     0.816270000000     0          
O        O      0.325412500000     0.085145000000     0.950730000000     0          
O        O      0.322152500000     0.135615000000     0.870980000000     0          
O        O      0.302212500000     0.045215000000     0.702430000000     0          
O        O      0.312500000000     0.086985000000     0.750000000000     0          
O        O      0.320677500000     0.099400000000     0.681930000000     0          
O        O      0.312500000000     0.003140000000     0.750000000000     0          
O        O      0.309585000000     0.078605000000     0.882830000000     0          
O        O      0.299520000000     0.033825000000     0.926990000000     0          
O        O      0.314325000000     0.271245000000     0.447380000000     0          
O        O      0.300852500000     0.318635000000     0.485810000000     0          
O        O      0.322580000000     0.324605000000     0.419230000000     0          
O        O      0.310252500000     0.308030000000     0.353690000000     0          
O        O      0.325692500000     0.255760000000     0.381560000000     0          
O        O      0.300722500000     0.258980000000     0.316270000000     0          
O        O      0.299587500000     0.414855000000     0.450730000000     0          
O        O      0.302847500000     0.364385000000     0.370980000000     0          
O        O      0.322787500000     0.454785000000     0.202430000000     0          
O        O      0.312500000000     0.413015000000     0.250000000000     0          
O        O      0.304322500000     0.400600000000     0.181930000000     0          
O        O      0.312500000000     0.496860000000     0.250000000000     0          
O        O      0.315415000000     0.421395000000     0.382830000000     0          
O        O      0.325480000000     0.466175000000     0.426990000000     0          
O        O      0.310675000000     0.271245000000     0.052620000000     0          
O        O      0.324147500000     0.318635000000     0.014190000000     0          
O        O      0.302420000000     0.324605000000     0.080770000000     0          
O        O      0.314747500000     0.308030000000     0.146310000000     0          
O        O      0.299307500000     0.255760000000     0.118440000000     0          
O        O      0.324277500000     0.258980000000     0.183730000000     0          
O        O      0.325412500000     0.414855000000     0.049270000000     0          
O        O      0.322152500000     0.364385000000     0.129020000000     0          
O        O      0.302212500000     0.454785000000     0.297570000000     0          
O        O      0.320677500000     0.400600000000     0.318070000000     0          
O        O      0.309585000000     0.421395000000     0.117170000000     0          
O        O      0.299520000000     0.466175000000     0.073010000000     0          
O        O      0.314325000000     0.228755000000     0.552620000000     0          
O        O      0.300852500000     0.181365000000     0.514190000000     0          
O        O      0.322580000000     0.175395000000     0.580770000000     0          
O        O      0.310252500000     0.191970000000     0.646310000000     0          
O        O      0.325692500000     0.244240000000     0.618440000000     0          
O        O      0.300722500000     0.241020000000     0.683730000000     0          
O        O      0.299587500000     0.085145000000     0.549270000000     0          
O        O      0.302847500000     0.135615000000     0.629020000000     0          
O        O      0.322787500000     0.045215000000     0.797570000000     0          
O        O      0.304322500000     0.099400000000     0.818070000000     0          
O        O      0.315415000000     0.078605000000     0.617170000000     0          
O        O      0.325480000000     0.033825000000     0.573010000000     0          
O        O      0.314325000000     0.521245000000     0.052620000000     0          
O        O      0.300852500000     0.568635000000     0.014190000000     0          
O        O      0.322580000000     0.574605000000     0.080770000000     0          
O        O      0.250000000000     0.554290000000     0.065070000000     0          
O        O      0.310252500000     0.558030000000     0.146310000000     0          
O        O      0.325692500000     0.505760000000     0.118440000000     0          
O        O      0.300722500000     0.508980000000     0.183730000000     0          
O        O      0.250000000000     0.521355000000     0.132180000000     0          
O        O      0.312500000000     0.625000000000     0.000000000000     0          
O        O      0.250000000000     0.661180000000     0.995020000000     0          
O        O      0.299587500000     0.664855000000     0.049270000000     0          
O        O      0.302847500000     0.614385000000     0.129020000000     0          
O        O      0.375000000000     0.589500000000     0.130260000000     0          
O        O      0.322787500000     0.704785000000     0.297570000000     0          
O        O      0.312500000000     0.663015000000     0.250000000000     0          
O        O      0.304322500000     0.650600000000     0.318070000000     0          
O        O      0.250000000000     0.683695000000     0.285440000000     0          
O        O      0.312500000000     0.746860000000     0.250000000000     0          
O        O      0.250000000000     0.749065000000     0.206700000000     0          
O        O      0.315415000000     0.671395000000     0.117170000000     0          
O        O      0.250000000000     0.654290000000     0.150850000000     0          
O        O      0.325480000000     0.716175000000     0.073010000000     0          
O        O      0.375000000000     0.670400000000     0.071100000000     0          
O        O      0.250000000000     0.735710000000     0.069290000000     0          
O        O      0.310675000000     0.978755000000     0.552620000000     0          
O        O      0.324147500000     0.931365000000     0.514190000000     0          
O        O      0.302420000000     0.925395000000     0.580770000000     0          
O        O      0.375000000000     0.945710000000     0.565070000000     0          
O        O      0.314747500000     0.941970000000     0.646310000000     0          
O        O      0.299307500000     0.994240000000     0.618440000000     0          
O        O      0.324277500000     0.991020000000     0.683730000000     0          
O        O      0.375000000000     0.978645000000     0.632180000000     0          
O        O      0.312500000000     0.875000000000     0.500000000000     0          
O        O      0.375000000000     0.838820000000     0.495020000000     0          
O        O      0.325412500000     0.835145000000     0.549270000000     0          
O        O      0.322152500000     0.885615000000     0.629020000000     0          
O        O      0.250000000000     0.910500000000     0.630260000000     0          
O        O      0.302212500000     0.795215000000     0.797570000000     0          
O        O      0.312500000000     0.836985000000     0.750000000000     0          
O        O      0.320677500000     0.849400000000     0.818070000000     0          
O        O      0.375000000000     0.816305000000     0.785440000000     0          
O        O      0.312500000000     0.753140000000     0.750000000000     0          
O        O      0.375000000000     0.750935000000     0.706700000000     0          
O        O      0.309585000000     0.828605000000     0.617170000000     0          
O        O      0.375000000000     0.845710000000     0.650850000000     0          
O        O      0.299520000000     0.783825000000     0.573010000000     0          
O        O      0.250000000000     0.829600000000     0.571100000000     0          
O        O      0.375000000000     0.764290000000     0.569290000000     0          
O        O      0.314325000000     0.978755000000     0.947380000000     0          
O        O      0.300852500000     0.931365000000     0.985810000000     0          
O        O      0.322580000000     0.925395000000     0.919230000000     0          
O        O      0.250000000000     0.945710000000     0.934930000000     0          
O        O      0.310252500000     0.941970000000     0.853690000000     0          
O        O      0.325692500000     0.994240000000     0.881560000000     0          
O        O      0.300722500000     0.991020000000     0.816270000000     0          
O        O      0.250000000000     0.978645000000     0.867820000000     0          
O        O      0.312500000000     0.875000000000     0.000000000000     0          
O        O      0.250000000000     0.838820000000     0.004980000000     0          
O        O      0.299587500000     0.835145000000     0.950730000000     0          
O        O      0.302847500000     0.885615000000     0.870980000000     0          
O        O      0.375000000000     0.910500000000     0.869740000000     0          
O        O      0.322787500000     0.795215000000     0.702430000000     0          
O        O      0.304322500000     0.849400000000     0.681930000000     0          
O        O      0.250000000000     0.816305000000     0.714560000000     0          
O        O      0.250000000000     0.750935000000     0.793300000000     0          
O        O      0.315415000000     0.828605000000     0.882830000000     0          
O        O      0.250000000000     0.845710000000     0.849150000000     0          
O        O      0.325480000000     0.783825000000     0.926990000000     0          
O        O      0.375000000000     0.829600000000     0.928900000000     0          
O        O      0.250000000000     0.764290000000     0.930710000000     0          
O        O      0.310675000000     0.521245000000     0.447380000000     0          
O        O      0.324147500000     0.568635000000     0.485810000000     0          
O        O      0.302420000000     0.574605000000     0.419230000000     0          
O        O      0.375000000000     0.554290000000     0.434930000000     0          
O        O      0.314747500000     0.558030000000     0.353690000000     0          
O        O      0.299307500000     0.505760000000     0.381560000000     0          
O        O      0.324277500000     0.508980000000     0.316270000000     0          
O        O      0.375000000000     0.521355000000     0.367820000000     0          
O        O      0.312500000000     0.625000000000     0.500000000000     0          
O        O      0.375000000000     0.661180000000     0.504980000000     0          
O        O      0.325412500000     0.664855000000     0.450730000000     0          
O        O      0.322152500000     0.614385000000     0.370980000000     0          
O        O      0.250000000000     0.589500000000     0.369740000000     0          
O        O      0.302212500000     0.704785000000     0.202430000000     0          
O        O      0.320677500000     0.650600000000     0.181930000000     0          
O        O      0.375000000000     0.683695000000     0.214560000000     0          
O        O      0.375000000000     0.749065000000     0.293300000000     0          
O        O      0.309585000000     0.671395000000     0.382830000000     0          
O        O      0.375000000000     0.654290000000     0.349150000000     0          
O        O      0.299520000000     0.716175000000     0.426990000000     0          
O        O      0.250000000000     0.670400000000     0.428900000000     0          
O        O      0.375000000000     0.735710000000     0.430710000000     0          
O        O      0.435675000000     0.978755000000     0.947380000000     0          
O        O      0.449147500000     0.931365000000     0.985810000000     0          
O        O      0.427420000000     0.925395000000     0.919230000000     0          
O        O      0.439747500000     0.941970000000     0.853690000000     0          
O        O      0.424307500000     0.994240000000     0.881560000000     0          
O        O      0.449277500000     0.991020000000     0.816270000000     0          
O        O      0.437500000000     0.875000000000     0.000000000000     0          
O        O      0.450412500000     0.835145000000     0.950730000000     0          
O        O      0.447152500000     0.885615000000     0.870980000000     0          
O        O      0.427212500000     0.795215000000     0.702430000000     0          
O        O      0.437500000000     0.836985000000     0.750000000000     0          
O        O      0.445677500000     0.849400000000     0.681930000000     0          
O        O      0.437500000000     0.753140000000     0.750000000000     0          
O        O      0.434585000000     0.828605000000     0.882830000000     0          
O        O      0.424520000000     0.783825000000     0.926990000000     0          
O        O      0.439325000000     0.521245000000     0.447380000000     0          
O        O      0.425852500000     0.568635000000     0.485810000000     0          
O        O      0.447580000000     0.574605000000     0.419230000000     0          
O        O      0.435252500000     0.558030000000     0.353690000000     0          
O        O      0.450692500000     0.505760000000     0.381560000000     0          
O        O      0.425722500000     0.508980000000     0.316270000000     0          
O        O      0.437500000000     0.625000000000     0.500000000000     0          
O        O      0.424587500000     0.664855000000     0.450730000000     0          
O        O      0.427847500000     0.614385000000     0.370980000000     0          
O        O      0.447787500000     0.704785000000     0.202430000000     0          
O        O      0.437500000000     0.663015000000     0.250000000000     0          
O        O      0.429322500000     0.650600000000     0.181930000000     0          
O        O      0.437500000000     0.746860000000     0.250000000000     0          
O        O      0.440415000000     0.671395000000     0.382830000000     0          
O        O      0.450480000000     0.716175000000     0.426990000000     0          
O        O      0.435675000000     0.521245000000     0.052620000000     0          
O        O      0.449147500000     0.568635000000     0.014190000000     0          
O        O      0.427420000000     0.574605000000     0.080770000000     0          
O        O      0.439747500000     0.558030000000     0.146310000000     0          
O        O      0.424307500000     0.505760000000     0.118440000000     0          
O        O      0.449277500000     0.508980000000     0.183730000000     0          
O        O      0.437500000000     0.625000000000     0.000000000000     0          
O        O      0.450412500000     0.664855000000     0.049270000000     0          
O        O      0.447152500000     0.614385000000     0.129020000000     0          
O        O      0.427212500000     0.704785000000     0.297570000000     0          
O        O      0.445677500000     0.650600000000     0.318070000000     0          
O        O      0.434585000000     0.671395000000     0.117170000000     0          
O        O      0.424520000000     0.716175000000     0.073010000000     0          
O        O      0.439325000000     0.978755000000     0.552620000000     0          
O        O      0.425852500000     0.931365000000     0.514190000000     0          
O        O      0.447580000000     0.925395000000     0.580770000000     0          
O        O      0.435252500000     0.941970000000     0.646310000000     0          
O        O      0.450692500000     0.994240000000     0.618440000000     0          
O        O      0.425722500000     0.991020000000     0.683730000000     0          
O        O      0.437500000000     0.875000000000     0.500000000000     0          
O        O      0.424587500000     0.835145000000     0.549270000000     0          
O        O      0.427847500000     0.885615000000     0.629020000000     0          
O        O      0.447787500000     0.795215000000     0.797570000000     0          
O        O      0.429322500000     0.849400000000     0.818070000000     0          
O        O      0.440415000000     0.828605000000     0.617170000000     0          
O        O      0.450480000000     0.783825000000     0.573010000000     0          
O        O      0.439325000000     0.771245000000     0.052620000000     0          
O        O      0.425852500000     0.818635000000     0.014190000000     0          
O        O      0.447580000000     0.824605000000     0.080770000000     0          
O        O      0.375000000000     0.804290000000     0.065070000000     0          
O        O      0.435252500000     0.808030000000     0.146310000000     0          
O        O      0.450692500000     0.755760000000     0.118440000000     0          
O        O      0.425722500000     0.758980000000     0.183730000000     0          
O        O      0.375000000000     0.771355000000     0.132180000000     0          
O        O      0.375000000000     0.911180000000     0.995020000000     0          
O        O      0.424587500000     0.914855000000     0.049270000000     0          
O        O      0.427847500000     0.864385000000     0.129020000000     0          
O        O      0.250000000000     0.839500000000     0.130260000000     0          
O        O      0.447787500000     0.954785000000     0.297570000000     0          
O        O      0.437500000000     0.913015000000     0.250000000000     0          
O        O      0.429322500000     0.900600000000     0.318070000000     0          
O        O      0.375000000000     0.933695000000     0.285440000000     0          
O        O      0.437500000000     0.996860000000     0.250000000000     0          
O        O      0.375000000000     0.999065000000     0.206700000000     0          
O        O      0.440415000000     0.921395000000     0.117170000000     0          
O        O      0.375000000000     0.904290000000     0.150850000000     0          
O        O      0.450480000000     0.966175000000     0.073010000000     0          
O        O      0.250000000000     0.920400000000     0.071100000000     0          
O        O      0.375000000000     0.985710000000     0.069290000000     0          
O        O      0.435675000000     0.728755000000     0.552620000000     0          
O        O      0.449147500000     0.681365000000     0.514190000000     0          
O        O      0.427420000000     0.675395000000     0.580770000000     0          
O        O      0.250000000000     0.695710000000     0.565070000000     0          
O        O      0.439747500000     0.691970000000     0.646310000000     0          
O        O      0.424307500000     0.744240000000     0.618440000000     0          
O        O      0.449277500000     0.741020000000     0.683730000000     0          
O        O      0.250000000000     0.728645000000     0.632180000000     0          
O        O      0.250000000000     0.588820000000     0.495020000000     0          
O        O      0.450412500000     0.585145000000     0.549270000000     0          
O        O      0.447152500000     0.635615000000     0.629020000000     0          
O        O      0.375000000000     0.660500000000     0.630260000000     0          
O        O      0.427212500000     0.545215000000     0.797570000000     0          
O        O      0.437500000000     0.586985000000     0.750000000000     0          
O        O      0.445677500000     0.599400000000     0.818070000000     0          
O        O      0.250000000000     0.566305000000     0.785440000000     0          
O        O      0.437500000000     0.503140000000     0.750000000000     0          
O        O      0.250000000000     0.500935000000     0.706700000000     0          
O        O      0.434585000000     0.578605000000     0.617170000000     0          
O        O      0.250000000000     0.595710000000     0.650850000000     0          
O        O      0.424520000000     0.533825000000     0.573010000000     0          
O        O      0.375000000000     0.579600000000     0.571100000000     0          
O        O      0.250000000000     0.514290000000     0.569290000000     0          
O        O      0.439325000000     0.728755000000     0.947380000000     0          
O        O      0.425852500000     0.681365000000     0.985810000000     0          
O        O      0.447580000000     0.675395000000     0.919230000000     0          
O        O      0.375000000000     0.695710000000     0.934930000000     0          
O        O      0.435252500000     0.691970000000     0.853690000000     0          
O        O      0.450692500000     0.744240000000     0.881560000000     0          
O        O      0.425722500000     0.741020000000     0.816270000000     0          
O        O      0.375000000000     0.728645000000     0.867820000000     0          
O        O      0.375000000000     0.588820000000     0.004980000000     0          
O        O      0.424587500000     0.585145000000     0.950730000000     0          
O        O      0.427847500000     0.635615000000     0.870980000000     0          
O        O      0.250000000000     0.660500000000     0.869740000000     0          
O        O      0.447787500000     0.545215000000     0.702430000000     0          
O        O      0.429322500000     0.599400000000     0.681930000000     0          
O        O      0.375000000000     0.566305000000     0.714560000000     0          
O        O      0.375000000000     0.500935000000     0.793300000000     0          
O        O      0.440415000000     0.578605000000     0.882830000000     0          
O        O      0.375000000000     0.595710000000     0.849150000000     0          
O        O      0.450480000000     0.533825000000     0.926990000000     0          
O        O      0.250000000000     0.579600000000     0.928900000000     0          
O        O      0.375000000000     0.514290000000     0.930710000000     0          
O        O      0.435675000000     0.771245000000     0.447380000000     0          
O        O      0.449147500000     0.818635000000     0.485810000000     0          
O        O      0.427420000000     0.824605000000     0.419230000000     0          
O        O      0.250000000000     0.804290000000     0.434930000000     0          
O        O      0.439747500000     0.808030000000     0.353690000000     0          
O        O      0.424307500000     0.755760000000     0.381560000000     0          
O        O      0.449277500000     0.758980000000     0.316270000000     0          
O        O      0.250000000000     0.771355000000     0.367820000000     0          
O        O      0.250000000000     0.911180000000     0.504980000000     0          
O        O      0.450412500000     0.914855000000     0.450730000000     0          
O        O      0.447152500000     0.864385000000     0.370980000000     0          
O        O      0.375000000000     0.839500000000     0.369740000000     0          
O        O      0.427212500000     0.954785000000     0.202430000000     0          
O        O      0.445677500000     0.900600000000     0.181930000000     0          
O        O      0.250000000000     0.933695000000     0.214560000000     0          
O        O      0.250000000000     0.999065000000     0.293300000000     0          
O        O      0.434585000000     0.921395000000     0.382830000000     0          
O        O      0.250000000000     0.904290000000     0.349150000000     0          
O        O      0.424520000000     0.966175000000     0.426990000000     0          
O        O      0.375000000000     0.920400000000     0.428900000000     0          
O        O      0.250000000000     0.985710000000     0.430710000000     0          
O        O      0.310675000000     0.728755000000     0.947380000000     0          
O        O      0.324147500000     0.681365000000     0.985810000000     0          
O        O      0.302420000000     0.675395000000     0.919230000000     0          
O        O      0.314747500000     0.691970000000     0.853690000000     0          
O        O      0.299307500000     0.744240000000     0.881560000000     0          
O        O      0.324277500000     0.741020000000     0.816270000000     0          
O        O      0.325412500000     0.585145000000     0.950730000000     0          
O        O      0.322152500000     0.635615000000     0.870980000000     0          
O        O      0.302212500000     0.545215000000     0.702430000000     0          
O        O      0.312500000000     0.586985000000     0.750000000000     0          
O        O      0.320677500000     0.599400000000     0.681930000000     0          
O        O      0.312500000000     0.503140000000     0.750000000000     0          
O        O      0.309585000000     0.578605000000     0.882830000000     0          
O        O      0.299520000000     0.533825000000     0.926990000000     0          
O        O      0.314325000000     0.771245000000     0.447380000000     0          
O        O      0.300852500000     0.818635000000     0.485810000000     0          
O        O      0.322580000000     0.824605000000     0.419230000000     0          
O        O      0.310252500000     0.808030000000     0.353690000000     0          
O        O      0.325692500000     0.755760000000     0.381560000000     0          
O        O      0.300722500000     0.758980000000     0.316270000000     0          
O        O      0.299587500000     0.914855000000     0.450730000000     0          
O        O      0.302847500000     0.864385000000     0.370980000000     0          
O        O      0.322787500000     0.954785000000     0.202430000000     0          
O        O      0.312500000000     0.913015000000     0.250000000000     0          
O        O      0.304322500000     0.900600000000     0.181930000000     0          
O        O      0.312500000000     0.996860000000     0.250000000000     0          
O        O      0.315415000000     0.921395000000     0.382830000000     0          
O        O      0.325480000000     0.966175000000     0.426990000000     0          
O        O      0.310675000000     0.771245000000     0.052620000000     0          
O        O      0.324147500000     0.818635000000     0.014190000000     0          
O        O      0.302420000000     0.824605000000     0.080770000000     0          
O        O      0.314747500000     0.808030000000     0.146310000000     0          
O        O      0.299307500000     0.755760000000     0.118440000000     0          
O        O      0.324277500000     0.758980000000     0.183730000000     0          
O        O      0.325412500000     0.914855000000     0.049270000000     0          
O        O      0.322152500000     0.864385000000     0.129020000000     0          
O        O      0.302212500000     0.954785000000     0.297570000000     0          
O        O      0.320677500000     0.900600000000     0.318070000000     0          
O        O      0.309585000000     0.921395000000     0.117170000000     0          
O        O      0.299520000000     0.966175000000     0.073010000000     0          
O        O      0.314325000000     0.728755000000     0.552620000000     0          
O        O      0.300852500000     0.681365000000     0.514190000000     0          
O        O      0.322580000000     0.675395000000     0.580770000000     0          
O        O      0.310252500000     0.691970000000     0.646310000000     0          
O        O      0.325692500000     0.744240000000     0.618440000000     0          
O        O      0.300722500000     0.741020000000     0.683730000000     0          
O        O      0.299587500000     0.585145000000     0.549270000000     0          
O        O      0.302847500000     0.635615000000     0.629020000000     0          
O        O      0.322787500000     0.545215000000     0.797570000000     0          
O        O      0.304322500000     0.599400000000     0.818070000000     0          
O        O      0.315415000000     0.578605000000     0.617170000000     0          
O        O      0.325480000000     0.533825000000     0.573010000000     0          
O        O      0.564325000000     0.021245000000     0.052620000000     0          
O        O      0.550852500000     0.068635000000     0.014190000000     0          
O        O      0.572580000000     0.074605000000     0.080770000000     0          
O        O      0.500000000000     0.054290000000     0.065070000000     0          
O        O      0.560252500000     0.058030000000     0.146310000000     0          
O        O      0.575692500000     0.005760000000     0.118440000000     0          
O        O      0.550722500000     0.008980000000     0.183730000000     0          
O        O      0.500000000000     0.021355000000     0.132180000000     0          
O        O      0.562500000000     0.125000000000     0.000000000000     0          
O        O      0.500000000000     0.161180000000     0.995020000000     0          
O        O      0.549587500000     0.164855000000     0.049270000000     0          
O        O      0.552847500000     0.114385000000     0.129020000000     0          
O        O      0.625000000000     0.089500000000     0.130260000000     0          
O        O      0.572787500000     0.204785000000     0.297570000000     0          
O        O      0.562500000000     0.163015000000     0.250000000000     0          
O        O      0.554322500000     0.150600000000     0.318070000000     0          
O        O      0.500000000000     0.183695000000     0.285440000000     0          
O        O      0.562500000000     0.246860000000     0.250000000000     0          
O        O      0.500000000000     0.249065000000     0.206700000000     0          
O        O      0.565415000000     0.171395000000     0.117170000000     0          
O        O      0.500000000000     0.154290000000     0.150850000000     0          
O        O      0.575480000000     0.216175000000     0.073010000000     0          
O        O      0.625000000000     0.170400000000     0.071100000000     0          
O        O      0.500000000000     0.235710000000     0.069290000000     0          
O        O      0.560675000000     0.478755000000     0.552620000000     0          
O        O      0.574147500000     0.431365000000     0.514190000000     0          
O        O      0.552420000000     0.425395000000     0.580770000000     0          
O        O      0.625000000000     0.445710000000     0.565070000000     0          
O        O      0.564747500000     0.441970000000     0.646310000000     0          
O        O      0.549307500000     0.494240000000     0.618440000000     0          
O        O      0.574277500000     0.491020000000     0.683730000000     0          
O        O      0.625000000000     0.478645000000     0.632180000000     0          
O        O      0.562500000000     0.375000000000     0.500000000000     0          
O        O      0.625000000000     0.338820000000     0.495020000000     0          
O        O      0.575412500000     0.335145000000     0.549270000000     0          
O        O      0.572152500000     0.385615000000     0.629020000000     0          
O        O      0.500000000000     0.410500000000     0.630260000000     0          
O        O      0.552212500000     0.295215000000     0.797570000000     0          
O        O      0.562500000000     0.336985000000     0.750000000000     0          
O        O      0.570677500000     0.349400000000     0.818070000000     0          
O        O      0.625000000000     0.316305000000     0.785440000000     0          
O        O      0.562500000000     0.253140000000     0.750000000000     0          
O        O      0.625000000000     0.250935000000     0.706700000000     0          
O        O      0.559585000000     0.328605000000     0.617170000000     0          
O        O      0.625000000000     0.345710000000     0.650850000000     0          
O        O      0.549520000000     0.283825000000     0.573010000000     0          
O        O      0.500000000000     0.329600000000     0.571100000000     0          
O        O      0.625000000000     0.264290000000     0.569290000000     0          
O        O      0.564325000000     0.478755000000     0.947380000000     0          
O        O      0.550852500000     0.431365000000     0.985810000000     0          
O        O      0.572580000000     0.425395000000     0.919230000000     0          
O        O      0.500000000000     0.445710000000     0.934930000000     0          
O        O      0.560252500000     0.441970000000     0.853690000000     0          
O        O      0.575692500000     0.494240000000     0.881560000000     0          
O        O      0.550722500000     0.491020000000     0.816270000000     0          
O        O      0.500000000000     0.478645000000     0.867820000000     0          
O        O      0.562500000000     0.375000000000     0.000000000000     0          
O        O      0.500000000000     0.338820000000     0.004980000000     0          
O        O      0.549587500000     0.335145000000     0.950730000000     0          
O        O      0.552847500000     0.385615000000     0.870980000000     0          
O        O      0.625000000000     0.410500000000     0.869740000000     0          
O        O      0.572787500000     0.295215000000     0.702430000000     0          
O        O      0.554322500000     0.349400000000     0.681930000000     0          
O        O      0.500000000000     0.316305000000     0.714560000000     0          
O        O      0.500000000000     0.250935000000     0.793300000000     0          
O        O      0.565415000000     0.328605000000     0.882830000000     0          
O        O      0.500000000000     0.345710000000     0.849150000000     0          
O        O      0.575480000000     0.283825000000     0.926990000000     0          
O        O      0.625000000000     0.329600000000     0.928900000000     0          
O        O      0.500000000000     0.264290000000     0.930710000000     0          
O        O      0.560675000000     0.021245000000     0.447380000000     0          
O        O      0.574147500000     0.068635000000     0.485810000000     0          
O        O      0.552420000000     0.074605000000     0.419230000000     0          
O        O      0.625000000000     0.054290000000     0.434930000000     0          
O        O      0.564747500000     0.058030000000     0.353690000000     0          
O        O      0.549307500000     0.005760000000     0.381560000000     0          
O        O      0.574277500000     0.008980000000     0.316270000000     0          
O        O      0.625000000000     0.021355000000     0.367820000000     0          
O        O      0.562500000000     0.125000000000     0.500000000000     0          
O        O      0.625000000000     0.161180000000     0.504980000000     0          
O        O      0.575412500000     0.164855000000     0.450730000000     0          
O        O      0.572152500000     0.114385000000     0.370980000000     0          
O        O      0.500000000000     0.089500000000     0.369740000000     0          
O        O      0.552212500000     0.204785000000     0.202430000000     0          
O        O      0.570677500000     0.150600000000     0.181930000000     0          
O        O      0.625000000000     0.183695000000     0.214560000000     0          
O        O      0.625000000000     0.249065000000     0.293300000000     0          
O        O      0.559585000000     0.171395000000     0.382830000000     0          
O        O      0.625000000000     0.154290000000     0.349150000000     0          
O        O      0.549520000000     0.216175000000     0.426990000000     0          
O        O      0.500000000000     0.170400000000     0.428900000000     0          
O        O      0.625000000000     0.235710000000     0.430710000000     0          
O        O      0.685675000000     0.478755000000     0.947380000000     0          
O        O      0.699147500000     0.431365000000     0.985810000000     0          
O        O      0.677420000000     0.425395000000     0.919230000000     0          
O        O      0.689747500000     0.441970000000     0.853690000000     0          
O        O      0.674307500000     0.494240000000     0.881560000000     0          
O        O      0.699277500000     0.491020000000     0.816270000000     0          
O        O      0.687500000000     0.375000000000     0.000000000000     0          
O        O      0.700412500000     0.335145000000     0.950730000000     0          
O        O      0.697152500000     0.385615000000     0.870980000000     0          
O        O      0.677212500000     0.295215000000     0.702430000000     0          
O        O      0.687500000000     0.336985000000     0.750000000000     0          
O        O      0.695677500000     0.349400000000     0.681930000000     0          
O        O      0.687500000000     0.253140000000     0.750000000000     0          
O        O      0.684585000000     0.328605000000     0.882830000000     0          
O        O      0.674520000000     0.283825000000     0.926990000000     0          
O        O      0.689325000000     0.021245000000     0.447380000000     0          
O        O      0.675852500000     0.068635000000     0.485810000000     0          
O        O      0.697580000000     0.074605000000     0.419230000000     0          
O        O      0.685252500000     0.058030000000     0.353690000000     0          
O        O      0.700692500000     0.005760000000     0.381560000000     0          
O        O      0.675722500000     0.008980000000     0.316270000000     0          
O        O      0.687500000000     0.125000000000     0.500000000000     0          
O        O      0.674587500000     0.164855000000     0.450730000000     0          
O        O      0.677847500000     0.114385000000     0.370980000000     0          
O        O      0.697787500000     0.204785000000     0.202430000000     0          
O        O      0.687500000000     0.163015000000     0.250000000000     0          
O        O      0.679322500000     0.150600000000     0.181930000000     0          
O        O      0.687500000000     0.246860000000     0.250000000000     0          
O        O      0.690415000000     0.171395000000     0.382830000000     0          
O        O      0.700480000000     0.216175000000     0.426990000000     0          
O        O      0.685675000000     0.021245000000     0.052620000000     0          
O        O      0.699147500000     0.068635000000     0.014190000000     0          
O        O      0.677420000000     0.074605000000     0.080770000000     0          
O        O      0.689747500000     0.058030000000     0.146310000000     0          
O        O      0.674307500000     0.005760000000     0.118440000000     0          
O        O      0.699277500000     0.008980000000     0.183730000000     0          
O        O      0.687500000000     0.125000000000     0.000000000000     0          
O        O      0.700412500000     0.164855000000     0.049270000000     0          
O        O      0.697152500000     0.114385000000     0.129020000000     0          
O        O      0.677212500000     0.204785000000     0.297570000000     0          
O        O      0.695677500000     0.150600000000     0.318070000000     0          
O        O      0.684585000000     0.171395000000     0.117170000000     0          
O        O      0.674520000000     0.216175000000     0.073010000000     0          
O        O      0.689325000000     0.478755000000     0.552620000000     0          
O        O      0.675852500000     0.431365000000     0.514190000000     0          
O        O      0.697580000000     0.425395000000     0.580770000000     0          
O        O      0.685252500000     0.441970000000     0.646310000000     0          
O        O      0.700692500000     0.494240000000     0.618440000000     0          
O        O      0.675722500000     0.491020000000     0.683730000000     0          
O        O      0.687500000000     0.375000000000     0.500000000000     0          
O        O      0.674587500000     0.335145000000     0.549270000000     0          
O        O      0.677847500000     0.385615000000     0.629020000000     0          
O        O      0.697787500000     0.295215000000     0.797570000000     0          
O        O      0.679322500000     0.349400000000     0.818070000000     0          
O        O      0.690415000000     0.328605000000     0.617170000000     0          
O        O      0.700480000000     0.283825000000     0.573010000000     0          
O        O      0.689325000000     0.271245000000     0.052620000000     0          
O        O      0.675852500000     0.318635000000     0.014190000000     0          
O        O      0.697580000000     0.324605000000     0.080770000000     0          
O        O      0.625000000000     0.304290000000     0.065070000000     0          
O        O      0.685252500000     0.308030000000     0.146310000000     0          
O        O      0.700692500000     0.255760000000     0.118440000000     0          
O        O      0.675722500000     0.258980000000     0.183730000000     0          
O        O      0.625000000000     0.271355000000     0.132180000000     0          
O        O      0.625000000000     0.411180000000     0.995020000000     0          
O        O      0.674587500000     0.414855000000     0.049270000000     0          
O        O      0.677847500000     0.364385000000     0.129020000000     0          
O        O      0.500000000000     0.339500000000     0.130260000000     0          
O        O      0.697787500000     0.454785000000     0.297570000000     0          
O        O      0.687500000000     0.413015000000     0.250000000000     0          
O        O      0.679322500000     0.400600000000     0.318070000000     0          
O        O      0.625000000000     0.433695000000     0.285440000000     0          
O        O      0.687500000000     0.496860000000     0.250000000000     0          
O        O      0.625000000000     0.499065000000     0.206700000000     0          
O        O      0.690415000000     0.421395000000     0.117170000000     0          
O        O      0.625000000000     0.404290000000     0.150850000000     0          
O        O      0.700480000000     0.466175000000     0.073010000000     0          
O        O      0.500000000000     0.420400000000     0.071100000000     0          
O        O      0.625000000000     0.485710000000     0.069290000000     0          
O        O      0.685675000000     0.228755000000     0.552620000000     0          
O        O      0.699147500000     0.181365000000     0.514190000000     0          
O        O      0.677420000000     0.175395000000     0.580770000000     0          
O        O      0.500000000000     0.195710000000     0.565070000000     0          
O        O      0.689747500000     0.191970000000     0.646310000000     0          
O        O      0.674307500000     0.244240000000     0.618440000000     0          
O        O      0.699277500000     0.241020000000     0.683730000000     0          
O        O      0.500000000000     0.228645000000     0.632180000000     0          
O        O      0.500000000000     0.088820000000     0.495020000000     0          
O        O      0.700412500000     0.085145000000     0.549270000000     0          
O        O      0.697152500000     0.135615000000     0.629020000000     0          
O        O      0.625000000000     0.160500000000     0.630260000000     0          
O        O      0.677212500000     0.045215000000     0.797570000000     0          
O        O      0.687500000000     0.086985000000     0.750000000000     0          
O        O      0.695677500000     0.099400000000     0.818070000000     0          
O        O      0.500000000000     0.066305000000     0.785440000000     0          
O        O      0.687500000000     0.003140000000     0.750000000000     0          
O        O      0.500000000000     0.000935000000     0.706700000000     0          
O        O      0.684585000000     0.078605000000     0.617170000000     0          
O        O      0.500000000000     0.095710000000     0.650850000000     0          
O        O      0.674520000000     0.033825000000     0.573010000000     0          
O        O      0.625000000000     0.079600000000     0.571100000000     0          
O        O      0.500000000000     0.014290000000     0.569290000000     0          
O        O      0.689325000000     0.228755000000     0.947380000000     0          
O        O      0.675852500000     0.181365000000     0.985810000000     0          
O        O      0.697580000000     0.175395000000     0.919230000000     0          
O        O      0.625000000000     0.195710000000     0.934930000000     0          
O        O      0.685252500000     0.191970000000     0.853690000000     0          
O        O      0.700692500000     0.244240000000     0.881560000000     0          
O        O      0.675722500000     0.241020000000     0.816270000000     0          
O        O      0.625000000000     0.228645000000     0.867820000000     0          
O        O      0.625000000000     0.088820000000     0.004980000000     0          
O        O      0.674587500000     0.085145000000     0.950730000000     0          
O        O      0.677847500000     0.135615000000     0.870980000000     0          
O        O      0.500000000000     0.160500000000     0.869740000000     0          
O        O      0.697787500000     0.045215000000     0.702430000000     0          
O        O      0.679322500000     0.099400000000     0.681930000000     0          
O        O      0.625000000000     0.066305000000     0.714560000000     0          
O        O      0.625000000000     0.000935000000     0.793300000000     0          
O        O      0.690415000000     0.078605000000     0.882830000000     0          
O        O      0.625000000000     0.095710000000     0.849150000000     0          
O        O      0.700480000000     0.033825000000     0.926990000000     0          
O        O      0.500000000000     0.079600000000     0.928900000000     0          
O        O      0.625000000000     0.014290000000     0.930710000000     0          
O        O      0.685675000000     0.271245000000     0.447380000000     0          
O        O      0.699147500000     0.318635000000     0.485810000000     0          
O        O      0.677420000000     0.324605000000     0.419230000000     0          
O        O      0.500000000000     0.304290000000     0.434930000000     0          
O        O      0.689747500000     0.308030000000     0.353690000000     0          
O        O      0.674307500000     0.255760000000     0.381560000000     0          
O        O      0.699277500000     0.258980000000     0.316270000000     0          
O        O      0.500000000000     0.271355000000     0.367820000000     0          
O        O      0.500000000000     0.411180000000     0.504980000000     0          
O        O      0.700412500000     0.414855000000     0.450730000000     0          
O        O      0.697152500000     0.364385000000     0.370980000000     0          
O        O      0.625000000000     0.339500000000     0.369740000000     0          
O        O      0.677212500000     0.454785000000     0.202430000000     0          
O        O      0.695677500000     0.400600000000     0.181930000000     0          
O        O      0.500000000000     0.433695000000     0.214560000000     0          
O        O      0.500000000000     0.499065000000     0.293300000000     0          
O        O      0.684585000000     0.421395000000     0.382830000000     0          
O        O      0.500000000000     0.404290000000     0.349150000000     0          
O        O      0.674520000000     0.466175000000     0.426990000000     0          
O        O      0.625000000000     0.420400000000     0.428900000000     0          
O        O      0.500000000000     0.485710000000     0.430710000000     0          
O        O      0.560675000000     0.228755000000     0.947380000000     0          
O        O      0.574147500000     0.181365000000     0.985810000000     0          
O        O      0.552420000000     0.175395000000     0.919230000000     0          
O        O      0.564747500000     0.191970000000     0.853690000000     0          
O        O      0.549307500000     0.244240000000     0.881560000000     0          
O        O      0.574277500000     0.241020000000     0.816270000000     0          
O        O      0.575412500000     0.085145000000     0.950730000000     0          
O        O      0.572152500000     0.135615000000     0.870980000000     0          
O        O      0.552212500000     0.045215000000     0.702430000000     0          
O        O      0.562500000000     0.086985000000     0.750000000000     0          
O        O      0.570677500000     0.099400000000     0.681930000000     0          
O        O      0.562500000000     0.003140000000     0.750000000000     0          
O        O      0.559585000000     0.078605000000     0.882830000000     0          
O        O      0.549520000000     0.033825000000     0.926990000000     0          
O        O      0.564325000000     0.271245000000     0.447380000000     0          
O        O      0.550852500000     0.318635000000     0.485810000000     0          
O        O      0.572580000000     0.324605000000     0.419230000000     0          
O        O      0.560252500000     0.308030000000     0.353690000000     0          
O        O      0.575692500000     0.255760000000     0.381560000000     0          
O        O      0.550722500000     0.258980000000     0.316270000000     0          
O        O      0.549587500000     0.414855000000     0.450730000000     0          
O        O      0.552847500000     0.364385000000     0.370980000000     0          
O        O      0.572787500000     0.454785000000     0.202430000000     0          
O        O      0.562500000000     0.413015000000     0.250000000000     0          
O        O      0.554322500000     0.400600000000     0.181930000000     0          
O        O      0.562500000000     0.496860000000     0.250000000000     0          
O        O      0.565415000000     0.421395000000     0.382830000000     0          
O        O      0.575480000000     0.466175000000     0.426990000000     0          
O        O      0.560675000000     0.271245000000     0.052620000000     0          
O        O      0.574147500000     0.318635000000     0.014190000000     0          
O        O      0.552420000000     0.324605000000     0.080770000000     0          
O        O      0.564747500000     0.308030000000     0.146310000000     0          
O        O      0.549307500000     0.255760000000     0.118440000000     0          
O        O      0.574277500000     0.258980000000     0.183730000000     0          
O        O      0.575412500000     0.414855000000     0.049270000000     0          
O        O      0.572152500000     0.364385000000     0.129020000000     0          
O        O      0.552212500000     0.454785000000     0.297570000000     0          
O        O      0.570677500000     0.400600000000     0.318070000000     0          
O        O      0.559585000000     0.421395000000     0.117170000000     0          
O        O      0.549520000000     0.466175000000     0.073010000000     0          
O        O      0.564325000000     0.228755000000     0.552620000000     0          
O        O      0.550852500000     0.181365000000     0.514190000000     0          
O        O      0.572580000000     0.175395000000     0.580770000000     0          
O        O      0.560252500000     0.191970000000     0.646310000000     0          
O        O      0.575692500000     0.244240000000     0.618440000000     0          
O        O      0.550722500000     0.241020000000     0.683730000000     0          
O        O      0.549587500000     0.085145000000     0.549270000000     0          
O        O      0.552847500000     0.135615000000     0.629020000000     0          
O        O      0.572787500000     0.045215000000     0.797570000000     0          
O        O      0.554322500000     0.099400000000     0.818070000000     0          
O        O      0.565415000000     0.078605000000     0.617170000000     0          
O        O      0.575480000000     0.033825000000     0.573010000000     0          
O        O      0.564325000000     0.521245000000     0.052620000000     0          
O        O      0.550852500000     0.568635000000     0.014190000000     0          
O        O      0.572580000000     0.574605000000     0.080770000000     0          
O        O      0.500000000000     0.554290000000     0.065070000000     0          
O        O      0.560252500000     0.558030000000     0.146310000000     0          
O        O      0.575692500000     0.505760000000     0.118440000000     0          
O        O      0.550722500000     0.508980000000     0.183730000000     0          
O        O      0.500000000000     0.521355000000     0.132180000000     0          
O        O      0.562500000000     0.625000000000     0.000000000000     0          
O        O      0.500000000000     0.661180000000     0.995020000000     0          
O        O      0.549587500000     0.664855000000     0.049270000000     0          
O        O      0.552847500000     0.614385000000     0.129020000000     0          
O        O      0.625000000000     0.589500000000     0.130260000000     0          
O        O      0.572787500000     0.704785000000     0.297570000000     0          
O        O      0.562500000000     0.663015000000     0.250000000000     0          
O        O      0.554322500000     0.650600000000     0.318070000000     0          
O        O      0.500000000000     0.683695000000     0.285440000000     0          
O        O      0.562500000000     0.746860000000     0.250000000000     0          
O        O      0.500000000000     0.749065000000     0.206700000000     0          
O        O      0.565415000000     0.671395000000     0.117170000000     0          
O        O      0.500000000000     0.654290000000     0.150850000000     0          
O        O      0.575480000000     0.716175000000     0.073010000000     0          
O        O      0.625000000000     0.670400000000     0.071100000000     0          
O        O      0.500000000000     0.735710000000     0.069290000000     0          
O        O      0.560675000000     0.978755000000     0.552620000000     0          
O        O      0.574147500000     0.931365000000     0.514190000000     0          
O        O      0.552420000000     0.925395000000     0.580770000000     0          
O        O      0.625000000000     0.945710000000     0.565070000000     0          
O        O      0.564747500000     0.941970000000     0.646310000000     0          
O        O      0.549307500000     0.994240000000     0.618440000000     0          
O        O      0.574277500000     0.991020000000     0.683730000000     0          
O        O      0.625000000000     0.978645000000     0.632180000000     0          
O        O      0.562500000000     0.875000000000     0.500000000000     0          
O        O      0.625000000000     0.838820000000     0.495020000000     0          
O        O      0.575412500000     0.835145000000     0.549270000000     0          
O        O      0.572152500000     0.885615000000     0.629020000000     0          
O        O      0.500000000000     0.910500000000     0.630260000000     0          
O        O      0.552212500000     0.795215000000     0.797570000000     0          
O        O      0.562500000000     0.836985000000     0.750000000000     0          
O        O      0.570677500000     0.849400000000     0.818070000000     0          
O        O      0.625000000000     0.816305000000     0.785440000000     0          
O        O      0.562500000000     0.753140000000     0.750000000000     0          
O        O      0.625000000000     0.750935000000     0.706700000000     0          
O        O      0.559585000000     0.828605000000     0.617170000000     0          
O        O      0.625000000000     0.845710000000     0.650850000000     0          
O        O      0.549520000000     0.783825000000     0.573010000000     0          
O        O      0.500000000000     0.829600000000     0.571100000000     0          
O        O      0.625000000000     0.764290000000     0.569290000000     0          
O        O      0.564325000000     0.978755000000     0.947380000000     0          
O        O      0.550852500000     0.931365000000     0.985810000000     0          
O        O      0.572580000000     0.925395000000     0.919230000000     0          
O        O      0.500000000000     0.945710000000     0.934930000000     0          
O        O      0.560252500000     0.941970000000     0.853690000000     0          
O        O      0.575692500000     0.994240000000     0.881560000000     0          
O        O      0.550722500000     0.991020000000     0.816270000000     0          
O        O      0.500000000000     0.978645000000     0.867820000000     0          
O        O      0.562500000000     0.875000000000     0.000000000000     0          
O        O      0.500000000000     0.838820000000     0.004980000000     0          
O        O      0.549587500000     0.835145000000     0.950730000000     0          
O        O      0.552847500000     0.885615000000     0.870980000000     0          
O        O      0.625000000000     0.910500000000     0.869740000000     0          
O        O      0.572787500000     0.795215000000     0.702430000000     0          
O        O      0.554322500000     0.849400000000     0.681930000000     0          
O        O      0.500000000000     0.816305000000     0.714560000000     0          
O        O      0.500000000000     0.750935000000     0.793300000000     0          
O        O      0.565415000000     0.828605000000     0.882830000000     0          
O        O      0.500000000000     0.845710000000     0.849150000000     0          
O        O      0.575480000000     0.783825000000     0.926990000000     0          
O        O      0.625000000000     0.829600000000     0.928900000000     0          
O        O      0.500000000000     0.764290000000     0.930710000000     0          
O        O      0.560675000000     0.521245000000     0.447380000000     0          
O        O      0.574147500000     0.568635000000     0.485810000000     0          
O        O      0.552420000000     0.574605000000     0.419230000000     0          
O        O      0.625000000000     0.554290000000     0.434930000000     0          
O        O      0.564747500000     0.558030000000     0.353690000000     0          
O        O      0.549307500000     0.505760000000     0.381560000000     0          
O        O      0.574277500000     0.508980000000     0.316270000000     0          
O        O      0.625000000000     0.521355000000     0.367820000000     0          
O        O      0.562500000000     0.625000000000     0.500000000000     0          
O        O      0.625000000000     0.661180000000     0.504980000000     0          
O        O      0.575412500000     0.664855000000     0.450730000000     0          
O        O      0.572152500000     0.614385000000     0.370980000000     0          
O        O      0.500000000000     0.589500000000     0.369740000000     0          
O        O      0.552212500000     0.704785000000     0.202430000000     0          
O        O      0.570677500000     0.650600000000     0.181930000000     0          
O        O      0.625000000000     0.683695000000     0.214560000000     0          
O        O      0.625000000000     0.749065000000     0.293300000000     0          
O        O      0.559585000000     0.671395000000     0.382830000000     0          
O        O      0.625000000000     0.654290000000     0.349150000000     0          
O        O      0.549520000000     0.716175000000     0.426990000000     0          
O        O      0.500000000000     0.670400000000     0.428900000000     0          
O        O      0.625000000000     0.735710000000     0.430710000000     0          
O        O      0.685675000000     0.978755000000     0.947380000000     0          
O        O      0.699147500000     0.931365000000     0.985810000000     0          
O        O      0.677420000000     0.925395000000     0.919230000000     0          
O        O      0.689747500000     0.941970000000     0.853690000000     0          
O        O      0.674307500000     0.994240000000     0.881560000000     0          
O        O      0.699277500000     0.991020000000     0.816270000000     0          
O        O      0.687500000000     0.875000000000     0.000000000000     0          
O        O      0.700412500000     0.835145000000     0.950730000000     0          
O        O      0.697152500000     0.885615000000     0.870980000000     0          
O        O      0.677212500000     0.795215000000     0.702430000000     0          
O        O      0.687500000000     0.836985000000     0.750000000000     0          
O        O      0.695677500000     0.849400000000     0.681930000000     0          
O        O      0.687500000000     0.753140000000     0.750000000000     0          
O        O      0.684585000000     0.828605000000     0.882830000000     0          
O        O      0.674520000000     0.783825000000     0.926990000000     0          
O        O      0.689325000000     0.521245000000     0.447380000000     0          
O        O      0.675852500000     0.568635000000     0.485810000000     0          
O        O      0.697580000000     0.574605000000     0.419230000000     0          
O        O      0.685252500000     0.558030000000     0.353690000000     0          
O        O      0.700692500000     0.505760000000     0.381560000000     0          
O        O      0.675722500000     0.508980000000     0.316270000000     0          
O        O      0.687500000000     0.625000000000     0.500000000000     0          
O        O      0.674587500000     0.664855000000     0.450730000000     0          
O        O      0.677847500000     0.614385000000     0.370980000000     0          
O        O      0.697787500000     0.704785000000     0.202430000000     0          
O        O      0.687500000000     0.663015000000     0.250000000000     0          
O        O      0.679322500000     0.650600000000     0.181930000000     0          
O        O      0.687500000000     0.746860000000     0.250000000000     0          
O        O      0.690415000000     0.671395000000     0.382830000000     0          
O        O      0.700480000000     0.716175000000     0.426990000000     0          
O        O      0.685675000000     0.521245000000     0.052620000000     0          
O        O      0.699147500000     0.568635000000     0.014190000000     0          
O        O      0.677420000000     0.574605000000     0.080770000000     0          
O        O      0.689747500000     0.558030000000     0.146310000000     0          
O        O      0.674307500000     0.505760000000     0.118440000000     0          
O        O      0.699277500000     0.508980000000     0.183730000000     0          
O        O      0.687500000000     0.625000000000     0.000000000000     0          
O        O      0.700412500000     0.664855000000     0.049270000000     0          
O        O      0.697152500000     0.614385000000     0.129020000000     0          
O        O      0.677212500000     0.704785000000     0.297570000000     0          
O        O      0.695677500000     0.650600000000     0.318070000000     0          
O        O      0.684585000000     0.671395000000     0.117170000000     0          
O        O      0.674520000000     0.716175000000     0.073010000000     0          
O        O      0.689325000000     0.978755000000     0.552620000000     0          
O        O      0.675852500000     0.931365000000     0.514190000000     0          
O        O      0.697580000000     0.925395000000     0.580770000000     0          
O        O      0.685252500000     0.941970000000     0.646310000000     0          
O        O      0.700692500000     0.994240000000     0.618440000000     0          
O        O      0.675722500000     0.991020000000     0.683730000000     0          
O        O      0.687500000000     0.875000000000     0.500000000000     0          
O        O      0.674587500000     0.835145000000     0.549270000000     0          
O        O      0.677847500000     0.885615000000     0.629020000000     0          
O        O      0.697787500000     0.795215000000     0.797570000000     0          
O        O      0.679322500000     0.849400000000     0.818070000000     0          
O        O      0.690415000000     0.828605000000     0.617170000000     0          
O        O      0.700480000000     0.783825000000     0.573010000000     0          
O        O      0.689325000000     0.771245000000     0.052620000000     0          
O        O      0.675852500000     0.818635000000     0.014190000000     0          
O        O      0.697580000000     0.824605000000     0.080770000000     0          
O        O      0.625000000000     0.804290000000     0.065070000000     0          
O        O      0.685252500000     0.808030000000     0.146310000000     0          
O        O      0.700692500000     0.755760000000     0.118440000000     0          
O        O      0.675722500000     0.758980000000     0.183730000000     0          
O        O      0.625000000000     0.771355000000     0.132180000000     0          
O        O      0.625000000000     0.911180000000     0.995020000000     0          
O        O      0.674587500000     0.914855000000     0.049270000000     0          
O        O      0.677847500000     0.864385000000     0.129020000000     0          
O        O      0.500000000000     0.839500000000     0.130260000000     0          
O        O      0.697787500000     0.954785000000     0.297570000000     0          
O        O      0.687500000000     0.913015000000     0.250000000000     0          
O        O      0.679322500000     0.900600000000     0.318070000000     0          
O        O      0.625000000000     0.933695000000     0.285440000000     0          
O        O      0.687500000000     0.996860000000     0.250000000000     0          
O        O      0.625000000000     0.999065000000     0.206700000000     0          
O        O      0.690415000000     0.921395000000     0.117170000000     0          
O        O      0.625000000000     0.904290000000     0.150850000000     0          
O        O      0.700480000000     0.966175000000     0.073010000000     0          
O        O      0.500000000000     0.920400000000     0.071100000000     0          
O        O      0.625000000000     0.985710000000     0.069290000000     0          
O        O      0.685675000000     0.728755000000     0.552620000000     0          
O        O      0.699147500000     0.681365000000     0.514190000000     0          
O        O      0.677420000000     0.675395000000     0.580770000000     0          
O        O      0.500000000000     0.695710000000     0.565070000000     0          
O        O      0.689747500000     0.691970000000     0.646310000000     0          
O        O      0.674307500000     0.744240000000     0.618440000000     0          
O        O      0.699277500000     0.741020000000     0.683730000000     0          
O        O      0.500000000000     0.728645000000     0.632180000000     0          
O        O      0.500000000000     0.588820000000     0.495020000000     0          
O        O      0.700412500000     0.585145000000     0.549270000000     0          
O        O      0.697152500000     0.635615000000     0.629020000000     0          
O        O      0.625000000000     0.660500000000     0.630260000000     0          
O        O      0.677212500000     0.545215000000     0.797570000000     0          
O        O      0.687500000000     0.586985000000     0.750000000000     0          
O        O      0.695677500000     0.599400000000     0.818070000000     0          
O        O      0.500000000000     0.566305000000     0.785440000000     0          
O        O      0.687500000000     0.503140000000     0.750000000000     0          
O        O      0.500000000000     0.500935000000     0.706700000000     0          
O        O      0.684585000000     0.578605000000     0.617170000000     0          
O        O      0.500000000000     0.595710000000     0.650850000000     0          
O        O      0.674520000000     0.533825000000     0.573010000000     0          
O        O      0.625000000000     0.579600000000     0.571100000000     0          
O        O      0.500000000000     0.514290000000     0.569290000000     0          
O        O      0.689325000000     0.728755000000     0.947380000000     0          
O        O      0.675852500000     0.681365000000     0.985810000000     0          
O        O      0.697580000000     0.675395000000     0.919230000000     0          
O        O      0.625000000000     0.695710000000     0.934930000000     0          
O        O      0.685252500000     0.691970000000     0.853690000000     0          
O        O      0.700692500000     0.744240000000     0.881560000000     0          
O        O      0.675722500000     0.741020000000     0.816270000000     0          
O        O      0.625000000000     0.728645000000     0.867820000000     0          
O        O      0.625000000000     0.588820000000     0.004980000000     0          
O        O      0.674587500000     0.585145000000     0.950730000000     0          
O        O      0.677847500000     0.635615000000     0.870980000000     0          
O        O      0.500000000000     0.660500000000     0.869740000000     0          
O        O      0.697787500000     0.545215000000     0.702430000000     0          
O        O      0.679322500000     0.599400000000     0.681930000000     0          
O        O      0.625000000000     0.566305000000     0.714560000000     0          
O        O      0.625000000000     0.500935000000     0.793300000000     0          
O        O      0.690415000000     0.578605000000     0.882830000000     0          
O        O      0.625000000000     0.595710000000     0.849150000000     0          
O        O      0.700480000000     0.533825000000     0.926990000000     0          
O        O      0.500000000000     0.579600000000     0.928900000000     0          
O        O      0.625000000000     0.514290000000     0.930710000000     0          
O        O      0.685675000000     0.771245000000     0.447380000000     0          
O        O      0.699147500000     0.818635000000     0.485810000000     0          
O        O      0.677420000000     0.824605000000     0.419230000000     0          
O        O      0.500000000000     0.804290000000     0.434930000000     0          
O        O      0.689747500000     0.808030000000     0.353690000000     0          
O        O      0.674307500000     0.755760000000     0.381560000000     0          
O        O      0.699277500000     0.758980000000     0.316270000000     0          
O        O      0.500000000000     0.771355000000     0.367820000000     0          
O        O      0.500000000000     0.911180000000     0.504980000000     0          
O        O      0.700412500000     0.914855000000     0.450730000000     0          
O        O      0.697152500000     0.864385000000     0.370980000000     0          
O        O      0.625000000000     0.839500000000     0.369740000000     0          
O        O      0.677212500000     0.954785000000     0.202430000000     0          
O        O      0.695677500000     0.900600000000     0.181930000000     0          
O        O      0.500000000000     0.933695000000     0.214560000000     0          
O        O      0.500000000000     0.999065000000     0.293300000000     0          
O        O      0.684585000000     0.921395000000     0.382830000000     0          
O        O      0.500000000000     0.904290000000     0.349150000000     0          
O        O      0.674520000000     0.966175000000     0.426990000000     0          
O        O      0.625000000000     0.920400000000     0.428900000000     0          
O        O      0.500000000000     0.985710000000     0.430710000000     0          
O        O      0.560675000000     0.728755000000     0.947380000000     0          
O        O      0.574147500000     0.681365000000     0.985810000000     0          
O        O      0.552420000000     0.675395000000     0.919230000000     0          
O        O      0.564747500000     0.691970000000     0.853690000000     0          
O        O      0.549307500000     0.744240000000     0.881560000000     0          
O        O      0.574277500000     0.741020000000     0.816270000000     0          
O        O      0.575412500000     0.585145000000     0.950730000000     0          
O        O      0.572152500000     0.635615000000     0.870980000000     0          
O        O      0.552212500000     0.545215000000     0.702430000000     0          
O        O      0.562500000000     0.586985000000     0.750000000000     0          
O        O      0.570677500000     0.599400000000     0.681930000000     0          
O        O      0.562500000000     0.503140000000     0.750000000000     0          
O        O      0.559585000000     0.578605000000     0.882830000000     0          
O        O      0.549520000000     0.533825000000     0.926990000000     0          
O        O      0.564325000000     0.771245000000     0.447380000000     0          
O        O      0.550852500000     0.818635000000     0.485810000000     0          
O        O      0.572580000000     0.824605000000     0.419230000000     0          
O        O      0.560252500000     0.808030000000     0.353690000000     0          
O        O      0.575692500000     0.755760000000     0.381560000000     0          
O        O      0.550722500000     0.758980000000     0.316270000000     0          
O        O      0.549587500000     0.914855000000     0.450730000000     0          
O        O      0.552847500000     0.864385000000     0.370980000000     0          
O        O      0.572787500000     0.954785000000     0.202430000000     0          
O        O      0.562500000000     0.913015000000     0.250000000000     0          
O        O      0.554322500000     0.900600000000     0.181930000000     0          
O        O      0.562500000000     0.996860000000     0.250000000000     0          
O        O      0.565415000000     0.921395000000     0.382830000000     0          
O        O      0.575480000000     0.966175000000     0.426990000000     0          
O        O      0.560675000000     0.771245000000     0.052620000000     0          
O        O      0.574147500000     0.818635000000     0.014190000000     0          
O        O      0.552420000000     0.824605000000     0.080770000000     0          
O        O      0.564747500000     0.808030000000     0.146310000000     0          
O        O      0.549307500000     0.755760000000     0.118440000000     0          
O        O      0.574277500000     0.758980000000     0.183730000000     0          
O        O      0.575412500000     0.914855000000     0.049270000000     0          
O        O      0.572152500000     0.864385000000     0.129020000000     0          
O        O      0.552212500000     0.954785000000     0.297570000000     0          
O        O      0.570677500000     0.900600000000     0.318070000000     0          
O        O      0.559585000000     0.921395000000     0.117170000000     0          
O        O      0.549520000000     0.966175000000     0.073010000000     0          
O        O      0.564325000000     0.728755000000     0.552620000000     0          
O        O      0.550852500000     0.681365000000     0.514190000000     0          
O        O      0.572580000000     0.675395000000     0.580770000000     0          
O        O      0.560252500000     0.691970000000     0.646310000000     0          
O        O      0.575692500000     0.744240000000     0.618440000000     0          
O        O      0.550722500000     0.741020000000     0.683730000000     0          
O        O      0.549587500000     0.585145000000     0.549270000000     0          
O        O      0.552847500000     0.635615000000     0.629020000000     0          
O        O      0.572787500000     0.545215000000     0.797570000000     0          
O        O      0.554322500000     0.599400000000     0.818070000000     0          
O        O      0.565415000000     0.578605000000     0.617170000000     0          
O        O      0.575480000000     0.533825000000     0.573010000000     0          
O        O      0.814325000000     0.021245000000     0.052620000000     0          
O        O      0.800852500000     0.068635000000     0.014190000000     0          
O        O      0.822580000000     0.074605000000     0.080770000000     0          
O        O      0.750000000000     0.054290000000     0.065070000000     0          
O        O      0.810252500000     0.058030000000     0.146310000000     0          
O        O      0.825692500000     0.005760000000     0.118440000000     0          
O        O      0.800722500000     0.008980000000     0.183730000000     0          
O        O      0.750000000000     0.021355000000     0.132180000000     0          
O        O      0.812500000000     0.125000000000     0.000000000000     0          
O        O      0.750000000000     0.161180000000     0.995020000000     0          
O        O      0.799587500000     0.164855000000     0.049270000000     0          
O        O      0.802847500000     0.114385000000     0.129020000000     0          
O        O      0.875000000000     0.089500000000     0.130260000000     0          
O        O      0.822787500000     0.204785000000     0.297570000000     0          
O        O      0.812500000000     0.163015000000     0.250000000000     0          
O        O      0.804322500000     0.150600000000     0.318070000000     0          
O        O      0.750000000000     0.183695000000     0.285440000000     0          
O        O      0.812500000000     0.246860000000     0.250000000000     0          
O        O      0.750000000000     0.249065000000     0.206700000000     0          
O        O      0.815415000000     0.171395000000     0.117170000000     0          
O        O      0.750000000000     0.154290000000     0.150850000000     0          
O        O      0.825480000000     0.216175000000     0.073010000000     0          
O        O      0.875000000000     0.170400000000     0.071100000000     0          
O        O      0.750000000000     0.235710000000     0.069290000000     0          
O        O      0.810675000000     0.478755000000     0.552620000000     0          
O        O      0.824147500000     0.431365000000     0.514190000000     0          
O        O      0.802420000000     0.425395000000     0.580770000000     0          
O        O      0.875000000000     0.445710000000     0.565070000000     0          
O        O      0.814747500000     0.441970000000     0.646310000000     0          
O        O      0.799307500000     0.494240000000     0.618440000000     0          
O        O      0.824277500000     0.491020000000     0.683730000000     0          
O        O      0.875000000000     0.478645000000     0.632180000000     0          
O        O      0.812500000000     0.375000000000     0.500000000000     0          
O        O      0.875000000000     0.338820000000     0.495020000000     0          
O        O      0.825412500000     0.335145000000     0.549270000000     0          
O        O      0.822152500000     0.385615000000     0.629020000000     0          
O        O      0.750000000000     0.410500000000     0.630260000000     0          
O        O      0.802212500000     0.295215000000     0.797570000000     0          
O        O      0.812500000000     0.336985000000     0.750000000000     0          
O        O      0.820677500000     0.349400000000     0.818070000000     0          
O        O      0.875000000000     0.316305000000     0.785440000000     0          
O        O      0.812500000000     0.253140000000     0.750000000000     0          
O        O      0.875000000000     0.250935000000     0.706700000000     0          
O        O      0.809585000000     0.328605000000     0.617170000000     0          
O        O      0.875000000000     0.345710000000     0.650850000000     0          
O        O      0.799520000000     0.283825000000     0.573010000000     0          
O        O      0.750000000000     0.329600000000     0.571100000000     0          
O        O      0.875000000000     0.264290000000     0.569290000000     0          
O        O      0.814325000000     0.478755000000     0.947380000000     0          
O        O      0.800852500000     0.431365000000     0.985810000000     0          
O        O      0.822580000000     0.425395000000     0.919230000000     0          
O        O      0.750000000000     0.445710000000     0.934930000000     0          
O        O      0.810252500000     0.441970000000     0.853690000000     0          
O        O      0.825692500000     0.494240000000     0.881560000000     0          
O        O      0.800722500000     0.491020000000     0.816270000000     0          
O        O      0.750000000000     0.478645000000     0.867820000000     0          
O        O      0.812500000000     0.375000000000     0.000000000000     0          
O        O      0.750000000000     0.338820000000     0.004980000000     0          
O        O      0.799587500000     0.335145000000     0.950730000000     0          
O        O      0.802847500000     0.385615000000     0.870980000000     0          
O        O      0.875000000000     0.410500000000     0.869740000000     0          
O        O      0.822787500000     0.295215000000     0.702430000000     0          
O        O      0.804322500000     0.349400000000     0.681930000000     0          
O        O      0.750000000000     0.316305000000     0.714560000000     0          
O        O      0.750000000000     0.250935000000     0.793300000000     0          
O        O      0.815415000000     0.328605000000     0.882830000000     0          
O        O      0.750000000000     0.345710000000     0.849150000000     0          
O        O      0.825480000000     0.283825000000     0.926990000000     0          
O        O      0.875000000000     0.329600000000     0.928900000000     0          
O        O      0.750000000000     0.264290000000     0.930710000000     0          
O        O      0.810675000000     0.021245000000     0.447380000000     0          
O        O      0.824147500000     0.068635000000     0.485810000000     0          
O        O      0.802420000000     0.074605000000     0.419230000000     0          
O        O      0.875000000000     0.054290000000     0.434930000000     0          
O        O      0.814747500000     0.058030000000     0.353690000000     0          
O        O      0.799307500000     0.005760000000     0.381560000000     0          
O        O      0.824277500000     0.008980000000     0.316270000000     0          
O        O      0.875000000000     0.021355000000     0.367820000000     0          
O        O      0.812500000000     0.125000000000     0.500000000000     0          
O        O      0.875000000000     0.161180000000     0.504980000000     0          
O        O      0.825412500000     0.164855000000     0.450730000000     0          
O        O      0.822152500000     0.114385000000     0.370980000000     0          
O        O      0.750000000000     0.089500000000     0.369740000000     0          
O        O      0.802212500000     0.204785000000     0.202430000000     0          
O        O      0.820677500000     0.150600000000     0.181930000000     0          
O        O      0.875000000000     0.183695000000     0.214560000000     0          
O        O      0.875000000000     0.249065000000     0.293300000000     0          
O        O      0.809585000000     0.171395000000     0.382830000000     0          
O        O      0.875000000000     0.154290000000     0.349150000000     0          
O        O      0.799520000000     0.216175000000     0.426990000000     0          
O        O      0.750000000000     0.170400000000     0.428900000000     0          
O        O      0.875000000000     0.235710000000     0.430710000000     0          
O        O      0.935675000000     0.478755000000     0.947380000000     0          
O        O      0.949147500000     0.431365000000     0.985810000000     0          
O        O      0.927420000000     0.425395000000     0.919230000000     0          
O        O      0.939747500000     0.441970000000     0.853690000000     0          
O        O      0.924307500000     0.494240000000     0.881560000000     0          
O        O      0.949277500000     0.491020000000     0.816270000000     0          
O        O      0.937500000000     0.375000000000     0.000000000000     0          
O        O      0.950412500000     0.335145000000     0.950730000000     0          
O        O      0.947152500000     0.385615000000     0.870980000000     0          
O        O      0.927212500000     0.295215000000     0.702430000000     0          
O        O      0.937500000000     0.336985000000     0.750000000000     0          
O        O      0.945677500000     0.349400000000     0.681930000000     0          
O        O      0.937500000000     0.253140000000     0.750000000000     0          
O        O      0.934585000000     0.328605000000     0.882830000000     0          
O        O      0.924520000000     0.283825000000     0.926990000000     0          
O        O      0.939325000000     0.021245000000     0.447380000000     0          
O        O      0.925852500000     0.068635000000     0.485810000000     0          
O        O      0.947580000000     0.074605000000     0.419230000000     0          
O        O      0.935252500000     0.058030000000     0.353690000000     0          
O        O      0.950692500000     0.005760000000     0.381560000000     0          
O        O      0.925722500000     0.008980000000     0.316270000000     0          
O        O      0.937500000000     0.125000000000     0.500000000000     0          
O        O      0.924587500000     0.164855000000     0.450730000000     0          
O        O      0.927847500000     0.114385000000     0.370980000000     0          
O        O      0.947787500000     0.204785000000     0.202430000000     0          
O        O      0.937500000000     0.163015000000     0.250000000000     0          
O        O      0.929322500000     0.150600000000     0.181930000000     0          
O        O      0.937500000000     0.246860000000     0.250000000000     0          
O        O      0.940415000000     0.171395000000     0.382830000000     0          
O        O      0.950480000000     0.216175000000     0.426990000000     0          
O        O      0.935675000000     0.021245000000     0.052620000000     0          
O        O      0.949147500000     0.068635000000     0.014190000000     0          
O        O      0.927420000000     0.074605000000     0.080770000000     0          
O        O      0.939747500000     0.058030000000     0.146310000000     0          
O        O      0.924307500000     0.005760000000     0.118440000000     0          
O        O      0.949277500000     0.008980000000     0.183730000000     0          
O        O      0.937500000000     0.125000000000     0.000000000000     0          
O        O      0.950412500000     0.164855000000     0.049270000000     0          
O        O      0.947152500000     0.114385000000     0.129020000000     0          
O        O      0.927212500000     0.204785000000     0.297570000000     0          
O        O      0.945677500000     0.150600000000     0.318070000000     0          
O        O      0.934585000000     0.171395000000     0.117170000000     0          
O        O      0.924520000000     0.216175000000     0.073010000000     0          
O        O      0.939325000000     0.478755000000     0.552620000000     0          
O        O      0.925852500000     0.431365000000     0.514190000000     0          
O        O      0.947580000000     0.425395000000     0.580770000000     0          
O        O      0.935252500000     0.441970000000     0.646310000000     0          
O        O      0.950692500000     0.494240000000     0.618440000000     0          
O        O      0.925722500000     0.491020000000     0.683730000000     0          
O        O      0.937500000000     0.375000000000     0.500000000000     0          
O        O      0.924587500000     0.335145000000     0.549270000000     0          
O        O      0.927847500000     0.385615000000     0.629020000000     0          
O        O      0.947787500000     0.295215000000     0.797570000000     0          
O        O      0.929322500000     0.349400000000     0.818070000000     0          
O        O      0.940415000000     0.328605000000     0.617170000000     0          
O        O      0.950480000000     0.283825000000     0.573010000000     0          
O        O      0.939325000000     0.271245000000     0.052620000000     0          
O        O      0.925852500000     0.318635000000     0.014190000000     0          
O        O      0.947580000000     0.324605000000     0.080770000000     0          
O        O      0.875000000000     0.304290000000     0.065070000000     0          
O        O      0.935252500000     0.308030000000     0.146310000000     0          
O        O      0.950692500000     0.255760000000     0.118440000000     0          
O        O      0.925722500000     0.258980000000     0.183730000000     0          
O        O      0.875000000000     0.271355000000     0.132180000000     0          
O        O      0.875000000000     0.411180000000     0.995020000000     0          
O        O      0.924587500000     0.414855000000     0.049270000000     0          
O        O      0.927847500000     0.364385000000     0.129020000000     0          
O        O      0.750000000000     0.339500000000     0.130260000000     0          
O        O      0.947787500000     0.454785000000     0.297570000000     0          
O        O      0.937500000000     0.413015000000     0.250000000000     0          
O        O      0.929322500000     0.400600000000     0.318070000000     0          
O        O      0.875000000000     0.433695000000     0.285440000000     0          
O        O      0.937500000000     0.496860000000     0.250000000000     0          
O        O      0.875000000000     0.499065000000     0.206700000000     0          
O        O      0.940415000000     0.421395000000     0.117170000000     0          
O        O      0.875000000000     0.404290000000     0.150850000000     0          
O        O      0.950480000000     0.466175000000     0.073010000000     0          
O        O      0.750000000000     0.420400000000     0.071100000000     0          
O        O      0.875000000000     0.485710000000     0.069290000000     0          
O        O      0.935675000000     0.228755000000     0.552620000000     0          
O        O      0.949147500000     0.181365000000     0.514190000000     0          
O        O      0.927420000000     0.175395000000     0.580770000000     0          
O        O      0.750000000000     0.195710000000     0.565070000000     0          
O        O      0.939747500000     0.191970000000     0.646310000000     0          
O        O      0.924307500000     0.244240000000     0.618440000000     0          
O        O      0.949277500000     0.241020000000     0.683730000000     0          
O        O      0.750000000000     0.228645000000     0.632180000000     0          
O        O      0.750000000000     0.088820000000     0.495020000000     0          
O        O      0.950412500000     0.085145000000     0.549270000000     0          
O        O      0.947152500000     0.135615000000     0.629020000000     0          
O        O      0.875000000000     0.160500000000     0.630260000000     0          
O        O      0.927212500000     0.045215000000     0.797570000000     0          
O        O      0.937500000000     0.086985000000     0.750000000000     0          
O        O      0.945677500000     0.099400000000     0.818070000000     0          
O        O      0.750000000000     0.066305000000     0.785440000000     0          
O        O      0.937500000000     0.003140000000     0.750000000000     0          
O        O      0.750000000000     0.000935000000     0.706700000000     0          
O        O      0.934585000000     0.078605000000     0.617170000000     0          
O        O      0.750000000000     0.095710000000     0.650850000000     0          
O        O      0.924520000000     0.033825000000     0.573010000000     0          
O        O      0.875000000000     0.079600000000     0.571100000000     0          
O        O      0.750000000000     0.014290000000     0.569290000000     0          
O        O      0.939325000000     0.228755000000     0.947380000000     0          
O        O      0.925852500000     0.181365000000     0.985810000000     0          
O        O      0.947580000000     0.175395000000     0.919230000000     0          
O        O      0.875000000000     0.195710000000     0.934930000000     0          
O        O      0.935252500000     0.191970000000     0.853690000000     0          
O        O      0.950692500000     0.244240000000     0.881560000000     0          
O        O      0.925722500000     0.241020000000     0.816270000000     0          
O        O      0.875000000000     0.228645000000     0.867820000000     0          
O        O      0.875000000000     0.088820000000     0.004980000000     0          
O        O      0.924587500000     0.085145000000     0.950730000000     0          
O        O      0.927847500000     0.135615000000     0.870980000000     0          
O        O      0.750000000000     0.160500000000     0.869740000000     0          
O        O      0.947787500000     0.045215000000     0.702430000000     0          
O        O      0.929322500000     0.099400000000     0.681930000000     0          
O        O      0.875000000000     0.066305000000     0.714560000000     0          
O        O      0.875000000000     0.000935000000     0.793300000000     0          
O        O      0.940415000000     0.078605000000     0.882830000000     0          
O        O      0.875000000000     0.095710000000     0.849150000000     0          
O        O      0.950480000000     0.033825000000     0.926990000000     0          
O        O      0.750000000000     0.079600000000     0.928900000000     0          
O        O      0.875000000000     0.014290000000     0.930710000000     0          
O        O      0.935675000000     0.271245000000     0.447380000000     0          
O        O      0.949147500000     0.318635000000     0.485810000000     0          
O        O      0.927420000000     0.324605000000     0.419230000000     0          
O        O      0.750000000000     0.304290000000     0.434930000000     0          
O        O      0.939747500000     0.308030000000     0.353690000000     0          
O        O      0.924307500000     0.255760000000     0.381560000000     0          
O        O      0.949277500000     0.258980000000     0.316270000000     0          
O        O      0.750000000000     0.271355000000     0.367820000000     0          
O        O      0.750000000000     0.411180000000     0.504980000000     0          
O        O      0.950412500000     0.414855000000     0.450730000000     0          
O        O      0.947152500000     0.364385000000     0.370980000000     0          
O        O      0.875000000000     0.339500000000     0.369740000000     0          
O        O      0.927212500000     0.454785000000     0.202430000000     0          
O        O      0.945677500000     0.400600000000     0.181930000000     0          
O        O      0.750000000000     0.433695000000     0.214560000000     0          
O        O      0.750000000000     0.499065000000     0.293300000000     0          
O        O      0.934585000000     0.421395000000     0.382830000000     0          
O        O      0.750000000000     0.404290000000     0.349150000000     0          
O        O      0.924520000000     0.466175000000     0.426990000000     0          
O        O      0.875000000000     0.420400000000     0.428900000000     0          
O        O      0.750000000000     0.485710000000     0.430710000000     0          
O        O      0.810675000000     0.228755000000     0.947380000000     0          
O        O      0.824147500000     0.181365000000     0.985810000000     0          
O        O      0.802420000000     0.175395000000     0.919230000000     0          
O        O      0.814747500000     0.191970000000     0.853690000000     0          
O        O      0.799307500000     0.244240000000     0.881560000000     0          
O        O      0.824277500000     0.241020000000     0.816270000000     0          
O        O      0.825412500000     0.085145000000     0.950730000000     0          
O        O      0.822152500000     0.135615000000     0.870980000000     0          
O        O      0.802212500000     0.045215000000     0.702430000000     0          
O        O      0.812500000000     0.086985000000     0.750000000000     0          
O        O      0.820677500000     0.099400000000     0.681930000000     0          
O        O      0.812500000000     0.003140000000     0.750000000000     0          
O        O      0.809585000000     0.078605000000     0.882830000000     0          
O        O      0.799520000000     0.033825000000     0.926990000000     0          
O        O      0.814325000000     0.271245000000     0.447380000000     0          
O        O      0.800852500000     0.318635000000     0.485810000000     0          
O        O      0.822580000000     0.324605000000     0.419230000000     0          
O        O      0.810252500000     0.308030000000     0.353690000000     0          
O        O      0.825692500000     0.255760000000     0.381560000000     0          
O        O      0.800722500000     0.258980000000     0.316270000000     0          
O        O      0.799587500000     0.414855000000     0.450730000000     0          
O        O      0.802847500000     0.364385000000     0.370980000000     0          
O        O      0.822787500000     0.454785000000     0.202430000000     0          
O        O      0.812500000000     0.413015000000     0.250000000000     0          
O        O      0.804322500000     0.400600000000     0.181930000000     0          
O        O      0.812500000000     0.496860000000     0.250000000000     0          
O        O      0.815415000000     0.421395000000     0.382830000000     0          
O        O      0.825480000000     0.466175000000     0.426990000000     0          
O        O      0.810675000000     0.271245000000     0.052620000000     0          
O        O      0.824147500000     0.318635000000     0.014190000000     0          
O        O      0.802420000000     0.324605000000     0.080770000000     0          
O        O      0.814747500000     0.308030000000     0.146310000000     0          
O        O      0.799307500000     0.255760000000     0.118440000000     0          
O        O      0.824277500000     0.258980000000     0.183730000000     0          
O        O      0.825412500000     0.414855000000     0.049270000000     0          
O        O      0.822152500000     0.364385000000     0.129020000000     0          
O        O      0.802212500000     0.454785000000     0.297570000000     0          
O        O      0.820677500000     0.400600000000     0.318070000000     0          
O        O      0.809585000000     0.421395000000     0.117170000000     0          
O        O      0.799520000000     0.466175000000     0.073010000000     0          
O        O      0.814325000000     0.228755000000     0.552620000000     0          
O        O      0.800852500000     0.181365000000     0.514190000000     0          
O        O      0.822580000000     0.175395000000     0.580770000000     0          
O        O      0.810252500000     0.191970000000     0.646310000000     0          
O        O      0.825692500000     0.244240000000     0.618440000000     0          
O        O      0.800722500000     0.241020000000     0.683730000000     0          
O        O      0.799587500000     0.085145000000     0.549270000000     0          
O        O      0.802847500000     0.135615000000     0.629020000000     0          
O        O      0.822787500000     0.045215000000     0.797570000000     0          
O        O      0.804322500000     0.099400000000     0.818070000000     0          
O        O      0.815415000000     0.078605000000     0.617170000000     0          
O        O      0.825480000000     0.033825000000     0.573010000000     0          
O        O      0.814325000000     0.521245000000     0.052620000000     0          
O        O      0.800852500000     0.568635000000     0.014190000000     0          
O        O      0.822580000000     0.574605000000     0.080770000000     0          
O        O      0.750000000000     0.554290000000     0.065070000000     0          
O        O      0.810252500000     0.558030000000     0.146310000000     0          
O        O      0.825692500000     0.505760000000     0.118440000000     0          
O        O      0.800722500000     0.508980000000     0.183730000000     0          
O        O      0.750000000000     0.521355000000     0.132180000000     0          
O        O      0.812500000000     0.625000000000     0.000000000000     0          
O        O      0.750000000000     0.661180000000     0.995020000000     0          
O        O      0.799587500000     0.664855000000     0.049270000000     0          
O        O      0.802847500000     0.614385000000     0.129020000000     0          
O        O      0.875000000000     0.589500000000     0.130260000000     0          
O        O      0.822787500000     0.704785000000     0.297570000000     0          
O        O      0.812500000000     0.663015000000     0.250000000000     0          
O        O      0.804322500000     0.650600000000     0.318070000000     0          
O        O      0.750000000000     0.683695000000     0.285440000000     0          
O        O      0.812500000000     0.746860000000     0.250000000000     0          
O        O      0.750000000000     0.749065000000     0.206700000000     0          
O        O      0.815415000000     0.671395000000     0.117170000000     0          
O        O      0.750000000000     0.654290000000     0.150850000000     0          
O        O      0.825480000000     0.716175000000     0.073010000000     0          
O        O      0.875000000000     0.670400000000     0.071100000000     0          
O        O      0.750000000000     0.735710000000     0.069290000000     0          
O        O      0.810675000000     0.978755000000     0.552620000000     0          
O        O      0.824147500000     0.931365000000     0.514190000000     0          
O        O      0.802420000000     0.925395000000     0.580770000000     0          
O        O      0.875000000000     0.945710000000     0.565070000000     0          
O        O      0.814747500000     0.941970000000     0.646310000000     0          
O        O      0.799307500000     0.994240000000     0.618440000000     0          
O        O      0.824277500000     0.991020000000     0.683730000000     0          
O        O      0.875000000000     0.978645000000     0.632180000000     0          
O        O      0.812500000000     0.875000000000     0.500000000000     0          
O        O      0.875000000000     0.838820000000     0.495020000000     0          
O        O      0.825412500000     0.835145000000     0.549270000000     0          
O        O      0.822152500000     0.885615000000     0.629020000000     0          
O        O      0.750000000000     0.910500000000     0.630260000000     0          
O        O      0.802212500000     0.795215000000     0.797570000000     0          
O        O      0.812500000000     0.836985000000     0.750000000000     0          
O        O      0.820677500000     0.849400000000     0.818070000000     0          
O        O      0.875000000000     0.816305000000     0.785440000000     0          
O        O      0.812500000000     0.753140000000     0.750000000000     0          
O        O      0.875000000000     0.750935000000     0.706700000000     0          
O        O      0.809585000000     0.828605000000     0.617170000000     0          
O        O      0.875000000000     0.845710000000     0.650850000000     0          
O        O      0.799520000000     0.783825000000     0.573010000000     0          
O        O      0.750000000000     0.829600000000     0.571100000000     0          
O        O      0.875000000000     0.764290000000     0.569290000000     0          
O        O      0.814325000000     0.978755000000     0.947380000000     0          
O        O      0.800852500000     0.931365000000     0.985810000000     0          
O        O      0.822580000000     0.925395000000     0.919230000000     0          
O        O      0.750000000000     0.945710000000     0.934930000000     0          
O        O      0.810252500000     0.941970000000     0.853690000000     0          
O        O      0.825692500000     0.994240000000     0.881560000000     0          
O        O      0.800722500000     0.991020000000     0.816270000000     0          
O        O      0.750000000000     0.978645000000     0.867820000000     0          
O        O      0.812500000000     0.875000000000     0.000000000000     0          
O        O      0.750000000000     0.838820000000     0.004980000000     0          
O        O      0.799587500000     0.835145000000     0.950730000000     0          
O        O      0.802847500000     0.885615000000     0.870980000000     0          
O        O      0.875000000000     0.910500000000     0.869740000000     0          
O        O      0.822787500000     0.795215000000     0.702430000000     0          
O        O      0.804322500000     0.849400000000     0.681930000000     0          
O        O      0.750000000000     0.816305000000     0.714560000000     0          
O        O      0.750000000000     0.750935000000     0.793300000000     0          
O        O      0.815415000000     0.828605000000     0.882830000000     0          
O        O      0.750000000000     0.845710000000     0.849150000000     0          
O        O      0.825480000000     0.783825000000     0.926990000000     0          
O        O      0.875000000000     0.829600000000     0.928900000000     0          
O        O      0.750000000000     0.764290000000     0.930710000000     0          
O        O      0.810675000000     0.521245000000     0.447380000000     0          
O        O      0.824147500000     0.568635000000     0.485810000000     0          
O        O      0.802420000000     0.574605000000     0.419230000000     0          
O        O      0.875000000000     0.554290000000     0.434930000000     0          
O        O      0.814747500000     0.558030000000     0.353690000000     0          
O        O      0.799307500000     0.505760000000     0.381560000000     0          
O        O      0.824277500000     0.508980000000     0.316270000000     0          
O        O      0.875000000000     0.521355000000     0.367820000000     0          
O        O      0.812500000000     0.625000000000     0.500000000000     0          
O        O      0.875000000000     0.661180000000     0.504980000000     0          
O        O      0.825412500000     0.664855000000     0.450730000000     0          
O        O      0.822152500000     0.614385000000     0.370980000000     0          
O        O      0.750000000000     0.589500000000     0.369740000000     0          
O        O      0.802212500000     0.704785000000     0.202430000000     0          
O        O      0.820677500000     0.650600000000     0.181930000000     0          
O        O      0.875000000000     0.683695000000     0.214560000000     0          
O        O      0.875000000000     0.749065000000     0.293300000000     0          
O        O      0.809585000000     0.671395000000     0.382830000000     0          
O        O      0.875000000000     0.654290000000     0.349150000000     0          
O        O      0.799520000000     0.716175000000     0.426990000000     0          
O        O      0.750000000000     0.670400000000     0.428900000000     0          
O        O      0.875000000000     0.735710000000     0.430710000000     0          
O        O      0.935675000000     0.978755000000     0.947380000000     0          
O        O      0.949147500000     0.931365000000     0.985810000000     0          
O        O      0.927420000000     0.925395000000     0.919230000000     0          
O        O      0.939747500000     0.941970000000     0.853690000000     0          
O        O      0.924307500000     0.994240000000     0.881560000000     0          
O        O      0.949277500000     0.991020000000     0.816270000000     0          
O        O      0.937500000000     0.875000000000     0.000000000000     0          
O        O      0.950412500000     0.835145000000     0.950730000000     0          
O        O      0.947152500000     0.885615000000     0.870980000000     0          
O        O      0.927212500000     0.795215000000     0.702430000000     0          
O        O      0.937500000000     0.836985000000     0.750000000000     0          
O        O      0.945677500000     0.849400000000     0.681930000000     0          
O        O      0.937500000000     0.753140000000     0.750000000000     0          
O        O      0.934585000000     0.828605000000     0.882830000000     0          
O        O      0.924520000000     0.783825000000     0.926990000000     0          
O        O      0.939325000000     0.521245000000     0.447380000000     0          
O        O      0.925852500000     0.568635000000     0.485810000000     0          
O        O      0.947580000000     0.574605000000     0.419230000000     0          
O        O      0.935252500000     0.558030000000     0.353690000000     0          
O        O      0.950692500000     0.505760000000     0.381560000000     0          
O        O      0.925722500000     0.508980000000     0.316270000000     0          
O        O      0.937500000000     0.625000000000     0.500000000000     0          
O        O      0.924587500000     0.664855000000     0.450730000000     0          
O        O      0.927847500000     0.614385000000     0.370980000000     0          
O        O      0.947787500000     0.704785000000     0.202430000000     0          
O        O      0.937500000000     0.663015000000     0.250000000000     0          
O        O      0.929322500000     0.650600000000     0.181930000000     0          
O        O      0.937500000000     0.746860000000     0.250000000000     0          
O        O      0.940415000000     0.671395000000     0.382830000000     0          
O        O      0.950480000000     0.716175000000     0.426990000000     0          
O        O      0.935675000000     0.521245000000     0.052620000000     0          
O        O      0.949147500000     0.568635000000     0.014190000000     0          
O        O      0.927420000000     0.574605000000     0.080770000000     0          
O        O      0.939747500000     0.558030000000     0.146310000000     0          
O        O      0.924307500000     0.505760000000     0.118440000000     0          
O        O      0.949277500000     0.508980000000     0.183730000000     0          
O        O      0.937500000000     0.625000000000     0.000000000000     0          
O        O      0.950412500000     0.664855000000     0.049270000000     0          
O        O      0.947152500000     0.614385000000     0.129020000000     0          
O        O      0.927212500000     0.704785000000     0.297570000000     0          
O        O      0.945677500000     0.650600000000     0.318070000000     0          
O        O      0.934585000000     0.671395000000     0.117170000000     0          
O        O      0.924520000000     0.716175000000     0.073010000000     0          
O        O      0.939325000000     0.978755000000     0.552620000000     0          
O        O      0.925852500000     0.931365000000     0.514190000000     0          
O        O      0.947580000000     0.925395000000     0.580770000000     0          
O        O      0.935252500000     0.941970000000     0.646310000000     0          
O        O      0.950692500000     0.994240000000     0.618440000000     0          
O        O      0.925722500000     0.991020000000     0.683730000000     0          
O        O      0.937500000000     0.875000000000     0.500000000000     0          
O        O      0.924587500000     0.835145000000     0.549270000000     0          
O        O      0.927847500000     0.885615000000     0.629020000000     0          
O        O      0.947787500000     0.795215000000     0.797570000000     0          
O        O      0.929322500000     0.849400000000     0.818070000000     0          
O        O      0.940415000000     0.828605000000     0.617170000000     0          
O        O      0.950480000000     0.783825000000     0.573010000000     0          
O        O      0.939325000000     0.771245000000     0.052620000000     0          
O        O      0.925852500000     0.818635000000     0.014190000000     0          
O        O      0.947580000000     0.824605000000     0.080770000000     0          
O        O      0.875000000000     0.804290000000     0.065070000000     0          
O        O      0.935252500000     0.808030000000     0.146310000000     0          
O        O      0.950692500000     0.755760000000     0.118440000000     0          
O        O      0.925722500000     0.758980000000     0.183730000000     0          
O        O      0.875000000000     0.771355000000     0.132180000000     0          
O        O      0.875000000000     0.911180000000     0.995020000000     0          
O        O      0.924587500000     0.914855000000     0.049270000000     0          
O        O      0.927847500000     0.864385000000     0.129020000000     0          
O        O      0.750000000000     0.839500000000     0.130260000000     0          
O        O      0.947787500000     0.954785000000     0.297570000000     0          
O        O      0.937500000000     0.913015000000     0.250000000000     0          
O        O      0.929322500000     0.900600000000     0.318070000000     0          
O        O      0.875000000000     0.933695000000     0.285440000000     0          
O        O      0.937500000000     0.996860000000     0.250000000000     0          
O        O      0.875000000000     0.999065000000     0.206700000000     0          
O        O      0.940415000000     0.921395000000     0.117170000000     0          
O        O      0.875000000000     0.904290000000     0.150850000000     0          
O        O      0.950480000000     0.966175000000     0.073010000000     0          
O        O      0.750000000000     0.920400000000     0.071100000000     0          
O        O      0.875000000000     0.985710000000     0.069290000000     0          
O        O      0.935675000000     0.728755000000     0.552620000000     0          
O        O      0.949147500000     0.681365000000     0.514190000000     0          
O        O      0.927420000000     0.675395000000     0.580770000000     0          
O        O      0.750000000000     0.695710000000     0.565070000000     0          
O        O      0.939747500000     0.691970000000     0.646310000000     0          
O        O      0.924307500000     0.744240000000     0.618440000000     0          
O        O      0.949277500000     0.741020000000     0.683730000000     0          
O        O      0.750000000000     0.728645000000     0.632180000000     0          
O        O      0.750000000000     0.588820000000     0.495020000000     0          
O        O      0.950412500000     0.585145000000     0.549270000000     0          
O        O      0.947152500000     0.635615000000     0.629020000000     0          
O        O      0.875000000000     0.660500000000     0.630260000000     0          
O        O      0.927212500000     0.545215000000     0.797570000000     0          
O        O      0.937500000000     0.586985000000     0.750000000000     0          
O        O      0.945677500000     0.599400000000     0.818070000000     0          
O        O      0.750000000000     0.566305000000     0.785440000000     0          
O        O      0.937500000000     0.503140000000     0.750000000000     0          
O        O      0.750000000000     0.500935000000     0.706700000000     0          
O        O      0.934585000000     0.578605000000     0.617170000000     0          
O        O      0.750000000000     0.595710000000     0.650850000000     0          
O        O      0.924520000000     0.533825000000     0.573010000000     0          
O        O      0.875000000000     0.579600000000     0.571100000000     0          
O        O      0.750000000000     0.514290000000     0.569290000000     0          
O        O      0.939325000000     0.728755000000     0.947380000000     0          
O        O      0.925852500000     0.681365000000     0.985810000000     0          
O        O      0.947580000000     0.675395000000     0.919230000000     0          
O        O      0.875000000000     0.695710000000     0.934930000000     0          
O        O      0.935252500000     0.691970000000     0.853690000000     0          
O        O      0.950692500000     0.744240000000     0.881560000000     0          
O        O      0.925722500000     0.741020000000     0.816270000000     0          
O        O      0.875000000000     0.728645000000     0.867820000000     0          
O        O      0.875000000000     0.588820000000     0.004980000000     0          
O        O      0.924587500000     0.585145000000     0.950730000000     0          
O        O      0.927847500000     0.635615000000     0.870980000000     0          
O        O      0.750000000000     0.660500000000     0.869740000000     0          
O        O      0.947787500000     0.545215000000     0.702430000000     0          
O        O      0.929322500000     0.599400000000     0.681930000000     0          
O        O      0.875000000000     0.566305000000     0.714560000000     0          
O        O      0.875000000000     0.500935000000     0.793300000000     0          
O        O      0.940415000000     0.578605000000     0.882830000000     0          
O        O      0.875000000000     0.595710000000     0.849150000000     0          
O        O      0.950480000000     0.533825000000     0.926990000000     0          
O        O      0.750000000000     0.579600000000     0.928900000000     0          
O        O      0.875000000000     0.514290000000     0.930710000000     0          
O        O      0.935675000000     0.771245000000     0.447380000000     0          
O        O      0.949147500000     0.818635000000     0.485810000000     0          
O        O      0.927420000000     0.824605000000     0.419230000000     0          
O        O      0.750000000000     0.804290000000     0.434930000000     0          
O        O      0.939747500000     0.808030000000     0.353690000000     0          
O        O      0.924307500000     0.755760000000     0.381560000000     0          
O        O      0.949277500000     0.758980000000     0.316270000000     0          
O        O      0.750000000000     0.771355000000     0.367820000000     0          
O        O      0.750000000000     0.911180000000     0.504980000000     0          
O        O      0.950412500000     0.914855000000     0.450730000000     0          
O        O      0.947152500000     0.864385000000     0.370980000000     0          
O        O      0.875000000000     0.839500000000     0.369740000000     0          
O        O      0.927212500000     0.954785000000     0.202430000000     0          
O        O      0.945677500000     0.900600000000     0.181930000000     0          
O        O      0.750000000000     0.933695000000     0.214560000000     0          
O        O      0.750000000000     0.999065000000     0.293300000000     0          
O        O      0.934585000000     0.921395000000     0.382830000000     0          
O        O      0.750000000000     0.904290000000     0.349150000000     0          
O        O      0.924520000000     0.966175000000     0.426990000000     0          
O        O      0.875000000000     0.920400000000     0.428900000000     0          
O        O      0.750000000000     0.985710000000     0.430710000000     0          
O        O      0.810675000000     0.728755000000     0.947380000000     0          
O        O      0.824147500000     0.681365000000     0.985810000000     0          
O        O      0.802420000000     0.675395000000     0.919230000000     0          
O        O      0.814747500000     0.691970000000     0.853690000000     0          
O        O      0.799307500000     0.744240000000     0.881560000000     0          
O        O      0.824277500000     0.741020000000     0.816270000000     0          
O        O      0.825412500000     0.585145000000     0.950730000000     0          
O        O      0.822152500000     0.635615000000     0.870980000000     0          
O        O      0.802212500000     0.545215000000     0.702430000000     0          
O        O      0.812500000000     0.586985000000     0.750000000000     0          
O        O      0.820677500000     0.599400000000     0.681930000000     0          
O        O      0.812500000000     0.503140000000     0.750000000000     0          
O        O      0.809585000000     0.578605000000     0.882830000000     0          
O        O      0.799520000000     0.533825000000     0.926990000000     0          
O        O      0.814325000000     0.771245000000     0.447380000000     0          
O        O      0.800852500000     0.818635000000     0.485810000000     0          
O        O      0.822580000000     0.824605000000     0.419230000000     0          
O        O      0.810252500000     0.808030000000     0.353690000000     0          
O        O      0.825692500000     0.755760000000     0.381560000000     0          
O        O      0.800722500000     0.758980000000     0.316270000000     0          
O        O      0.799587500000     0.914855000000     0.450730000000     0          
O        O      0.802847500000     0.864385000000     0.370980000000     0          
O        O      0.822787500000     0.954785000000     0.202430000000     0          
O        O      0.812500000000     0.913015000000     0.250000000000     0          
O        O      0.804322500000     0.900600000000     0.181930000000     0          
O        O      0.812500000000     0.996860000000     0.250000000000     0          
O        O      0.815415000000     0.921395000000     0.382830000000     0          
O        O      0.825480000000     0.966175000000     0.426990000000     0          
O        O      0.810675000000     0.771245000000     0.052620000000     0          
O        O      0.824147500000     0.818635000000     0.014190000000     0          
O        O      0.802420000000     0.824605000000     0.080770000000     0          
O        O      0.814747500000     0.808030000000     0.146310000000     0          
O        O      0.799307500000     0.755760000000     0.118440000000     0          
O        O      0.824277500000     0.758980000000     0.183730000000     0          
O        O      0.825412500000     0.914855000000     0.049270000000     0          
O        O      0.822152500000     0.864385000000     0.129020000000     0          
O        O      0.802212500000     0.954785000000     0.297570000000     0          
O        O      0.820677500000     0.900600000000     0.318070000000     0          
O        O      0.809585000000     0.921395000000     0.117170000000     0          
O        O      0.799520000000     0.966175000000     0.073010000000     0          
O        O      0.814325000000     0.728755000000     0.552620000000     0          
O        O      0.800852500000     0.681365000000     0.514190000000     0          
O        O      0.822580000000     0.675395000000     0.580770000000     0          
O        O      0.810252500000     0.691970000000     0.646310000000     0          
O        O      0.825692500000     0.744240000000     0.618440000000     0          
O        O      0.800722500000     0.741020000000     0.683730000000     0          
O        O      0.799587500000     0.585145000000     0.549270000000     0          
O        O      0.802847500000     0.635615000000     0.629020000000     0          
O        O      0.822787500000     0.545215000000     0.797570000000     0          
O        O      0.804322500000     0.599400000000     0.818070000000     0          
O        O      0.815415000000     0.578605000000     0.617170000000     0          
O        O      0.825480000000     0.533825000000     0.573010000000     0          


