data_zeolite

_audit_creation_method RASPA-1.0
_audit_creation_date 2020-12-26
_audit_author_name ''

_cell_length_a    27.303
_cell_length_b    30.07
_cell_length_c    38.482
_cell_angle_alpha 90
_cell_angle_beta  90
_cell_angle_gamma 90
_cell_volume      31593.8

_symmetry_cell_setting          orthorhombic
_symmetry_space_group_name_Hall 'P 1'
_symmetry_space_group_name_H-M  'P 1'
_symmetry_Int_Tables_number     1

_symmetry_equiv_pos_as_xyz 'x,y,z'

loop_
_atom_site_label
_atom_site_type_symbol
_atom_site_fract_x
_atom_site_fract_y
_atom_site_fract_z
_atom_site_charge
O        O      0.083333333333     0.444900000000     0.125000000000     0          
O        O      0.000000000000     0.430350000000     0.157450000000     0          
O        O      0.075800000000     0.378000000000     0.168400000000     0          
O        O      0.076633333333     0.459800000000     0.192100000000     0          
O        O      0.073066666667     0.045650000000     0.057900000000     0          
O        O      0.065233333333     0.000000000000     0.000000000000     0          
O        O      0.000000000000     0.489450000000     0.049650000000     0          
O        O      0.083333333333     0.060550000000     0.125000000000     0          
O        O      0.166666666667     0.077300000000     0.155400000000     0          
T        Si     0.058666666667     0.428350000000     0.160750000000     0          
T        Si     0.056866666667     0.498650000000     0.041350000000     0          
T        Si     0.108266666667     0.077900000000     0.160400000000     0          
O        O      0.083333333333     0.055100000000     0.375000000000     0          
O        O      0.166666666667     0.069650000000     0.407450000000     0          
O        O      0.090866666667     0.122000000000     0.418400000000     0          
O        O      0.090033333333     0.040200000000     0.442100000000     0          
O        O      0.093600000000     0.454350000000     0.307900000000     0          
O        O      0.101433333333     0.000000000000     0.250000000000     0          
O        O      0.166666666667     0.010550000000     0.299650000000     0          
O        O      0.083333333333     0.439450000000     0.375000000000     0          
O        O      0.000000000000     0.422700000000     0.405400000000     0          
T        Si     0.108000000000     0.071650000000     0.410750000000     0          
T        Si     0.109800000000     0.001350000000     0.291350000000     0          
T        Si     0.058400000000     0.422100000000     0.410400000000     0          
O        O      0.000000000000     0.069650000000     0.342550000000     0          
O        O      0.075800000000     0.122000000000     0.331600000000     0          
O        O      0.076633333333     0.040200000000     0.307900000000     0          
O        O      0.073066666667     0.454350000000     0.442100000000     0          
O        O      0.000000000000     0.010550000000     0.450350000000     0          
O        O      0.166666666667     0.422700000000     0.344600000000     0          
T        Si     0.058666666667     0.071650000000     0.339250000000     0          
T        Si     0.056866666667     0.001350000000     0.458650000000     0          
T        Si     0.108266666667     0.422100000000     0.339600000000     0          
O        O      0.166666666667     0.430350000000     0.092550000000     0          
O        O      0.090866666667     0.378000000000     0.081600000000     0          
O        O      0.090033333333     0.459800000000     0.057900000000     0          
O        O      0.093600000000     0.045650000000     0.192100000000     0          
O        O      0.166666666667     0.489450000000     0.200350000000     0          
O        O      0.000000000000     0.077300000000     0.094600000000     0          
T        Si     0.108000000000     0.428350000000     0.089250000000     0          
T        Si     0.109800000000     0.498650000000     0.208650000000     0          
T        Si     0.058400000000     0.077900000000     0.089600000000     0          
O        O      0.250000000000     0.055100000000     0.375000000000     0          
O        O      0.257533333333     0.122000000000     0.331600000000     0          
O        O      0.256700000000     0.040200000000     0.307900000000     0          
O        O      0.260266666667     0.454350000000     0.442100000000     0          
O        O      0.268100000000     0.000000000000     0.000000000000     0          
O        O      0.250000000000     0.439450000000     0.375000000000     0          
T        Si     0.274666666667     0.071650000000     0.339250000000     0          
T        Si     0.276466666667     0.001350000000     0.458650000000     0          
T        Si     0.225066666667     0.422100000000     0.339600000000     0          
O        O      0.250000000000     0.444900000000     0.125000000000     0          
O        O      0.242466666667     0.378000000000     0.081600000000     0          
O        O      0.243300000000     0.459800000000     0.057900000000     0          
O        O      0.239733333333     0.045650000000     0.192100000000     0          
O        O      0.231900000000     0.000000000000     0.250000000000     0          
O        O      0.250000000000     0.060550000000     0.125000000000     0          
T        Si     0.225333333333     0.428350000000     0.089250000000     0          
T        Si     0.223533333333     0.498650000000     0.208650000000     0          
T        Si     0.274933333333     0.077900000000     0.089600000000     0          
O        O      0.257533333333     0.378000000000     0.168400000000     0          
O        O      0.256700000000     0.459800000000     0.192100000000     0          
O        O      0.260266666667     0.045650000000     0.057900000000     0          
T        Si     0.274666666667     0.428350000000     0.160750000000     0          
T        Si     0.276466666667     0.498650000000     0.041350000000     0          
T        Si     0.225066666667     0.077900000000     0.160400000000     0          
O        O      0.242466666667     0.122000000000     0.418400000000     0          
O        O      0.243300000000     0.040200000000     0.442100000000     0          
O        O      0.239733333333     0.454350000000     0.307900000000     0          
T        Si     0.225333333333     0.071650000000     0.410750000000     0          
T        Si     0.223533333333     0.001350000000     0.291350000000     0          
T        Si     0.274933333333     0.422100000000     0.410400000000     0          
O        O      0.250000000000     0.194900000000     0.125000000000     0          
O        O      0.166666666667     0.180350000000     0.157450000000     0          
O        O      0.242466666667     0.128000000000     0.168400000000     0          
O        O      0.243300000000     0.209800000000     0.192100000000     0          
O        O      0.239733333333     0.295650000000     0.057900000000     0          
O        O      0.231900000000     0.250000000000     0.000000000000     0          
O        O      0.166666666667     0.239450000000     0.049650000000     0          
O        O      0.250000000000     0.310550000000     0.125000000000     0          
O        O      0.000000000000     0.327300000000     0.155400000000     0          
T        Si     0.225333333333     0.178350000000     0.160750000000     0          
T        Si     0.223533333333     0.248650000000     0.041350000000     0          
T        Si     0.274933333333     0.327900000000     0.160400000000     0          
O        O      0.250000000000     0.305100000000     0.375000000000     0          
O        O      0.000000000000     0.319650000000     0.407450000000     0          
O        O      0.257533333333     0.372000000000     0.418400000000     0          
O        O      0.256700000000     0.290200000000     0.442100000000     0          
O        O      0.260266666667     0.204350000000     0.307900000000     0          
O        O      0.268100000000     0.250000000000     0.250000000000     0          
O        O      0.000000000000     0.260550000000     0.299650000000     0          
O        O      0.250000000000     0.189450000000     0.375000000000     0          
O        O      0.166666666667     0.172700000000     0.405400000000     0          
T        Si     0.274666666667     0.321650000000     0.410750000000     0          
T        Si     0.276466666667     0.251350000000     0.291350000000     0          
T        Si     0.225066666667     0.172100000000     0.410400000000     0          
O        O      0.166666666667     0.319650000000     0.342550000000     0          
O        O      0.242466666667     0.372000000000     0.331600000000     0          
O        O      0.243300000000     0.290200000000     0.307900000000     0          
O        O      0.239733333333     0.204350000000     0.442100000000     0          
O        O      0.166666666667     0.260550000000     0.450350000000     0          
O        O      0.000000000000     0.172700000000     0.344600000000     0          
T        Si     0.225333333333     0.321650000000     0.339250000000     0          
T        Si     0.223533333333     0.251350000000     0.458650000000     0          
T        Si     0.274933333333     0.172100000000     0.339600000000     0          
O        O      0.000000000000     0.180350000000     0.092550000000     0          
O        O      0.257533333333     0.128000000000     0.081600000000     0          
O        O      0.256700000000     0.209800000000     0.057900000000     0          
O        O      0.260266666667     0.295650000000     0.192100000000     0          
O        O      0.000000000000     0.239450000000     0.200350000000     0          
O        O      0.166666666667     0.327300000000     0.094600000000     0          
T        Si     0.274666666667     0.178350000000     0.089250000000     0          
T        Si     0.276466666667     0.248650000000     0.208650000000     0          
T        Si     0.225066666667     0.327900000000     0.089600000000     0          
O        O      0.083333333333     0.305100000000     0.375000000000     0          
O        O      0.090866666667     0.372000000000     0.331600000000     0          
O        O      0.090033333333     0.290200000000     0.307900000000     0          
O        O      0.093600000000     0.204350000000     0.442100000000     0          
O        O      0.101433333333     0.250000000000     0.000000000000     0          
O        O      0.083333333333     0.189450000000     0.375000000000     0          
T        Si     0.108000000000     0.321650000000     0.339250000000     0          
T        Si     0.109800000000     0.251350000000     0.458650000000     0          
T        Si     0.058400000000     0.172100000000     0.339600000000     0          
O        O      0.083333333333     0.194900000000     0.125000000000     0          
O        O      0.075800000000     0.128000000000     0.081600000000     0          
O        O      0.076633333333     0.209800000000     0.057900000000     0          
O        O      0.073066666667     0.295650000000     0.192100000000     0          
O        O      0.065233333333     0.250000000000     0.250000000000     0          
O        O      0.083333333333     0.310550000000     0.125000000000     0          
T        Si     0.058666666667     0.178350000000     0.089250000000     0          
T        Si     0.056866666667     0.248650000000     0.208650000000     0          
T        Si     0.108266666667     0.327900000000     0.089600000000     0          
O        O      0.090866666667     0.128000000000     0.168400000000     0          
O        O      0.090033333333     0.209800000000     0.192100000000     0          
O        O      0.093600000000     0.295650000000     0.057900000000     0          
T        Si     0.108000000000     0.178350000000     0.160750000000     0          
T        Si     0.109800000000     0.248650000000     0.041350000000     0          
T        Si     0.058400000000     0.327900000000     0.160400000000     0          
O        O      0.075800000000     0.372000000000     0.418400000000     0          
O        O      0.076633333333     0.290200000000     0.442100000000     0          
O        O      0.073066666667     0.204350000000     0.307900000000     0          
T        Si     0.058666666667     0.321650000000     0.410750000000     0          
T        Si     0.056866666667     0.251350000000     0.291350000000     0          
T        Si     0.108266666667     0.172100000000     0.410400000000     0          
O        O      0.083333333333     0.444900000000     0.625000000000     0          
O        O      0.000000000000     0.430350000000     0.657450000000     0          
O        O      0.075800000000     0.378000000000     0.668400000000     0          
O        O      0.076633333333     0.459800000000     0.692100000000     0          
O        O      0.073066666667     0.045650000000     0.557900000000     0          
O        O      0.065233333333     0.000000000000     0.500000000000     0          
O        O      0.000000000000     0.489450000000     0.549650000000     0          
O        O      0.083333333333     0.060550000000     0.625000000000     0          
O        O      0.166666666667     0.077300000000     0.655400000000     0          
T        Si     0.058666666667     0.428350000000     0.660750000000     0          
T        Si     0.056866666667     0.498650000000     0.541350000000     0          
T        Si     0.108266666667     0.077900000000     0.660400000000     0          
O        O      0.083333333333     0.055100000000     0.875000000000     0          
O        O      0.166666666667     0.069650000000     0.907450000000     0          
O        O      0.090866666667     0.122000000000     0.918400000000     0          
O        O      0.090033333333     0.040200000000     0.942100000000     0          
O        O      0.093600000000     0.454350000000     0.807900000000     0          
O        O      0.101433333333     0.000000000000     0.750000000000     0          
O        O      0.166666666667     0.010550000000     0.799650000000     0          
O        O      0.083333333333     0.439450000000     0.875000000000     0          
O        O      0.000000000000     0.422700000000     0.905400000000     0          
T        Si     0.108000000000     0.071650000000     0.910750000000     0          
T        Si     0.109800000000     0.001350000000     0.791350000000     0          
T        Si     0.058400000000     0.422100000000     0.910400000000     0          
O        O      0.000000000000     0.069650000000     0.842550000000     0          
O        O      0.075800000000     0.122000000000     0.831600000000     0          
O        O      0.076633333333     0.040200000000     0.807900000000     0          
O        O      0.073066666667     0.454350000000     0.942100000000     0          
O        O      0.000000000000     0.010550000000     0.950350000000     0          
O        O      0.166666666667     0.422700000000     0.844600000000     0          
T        Si     0.058666666667     0.071650000000     0.839250000000     0          
T        Si     0.056866666667     0.001350000000     0.958650000000     0          
T        Si     0.108266666667     0.422100000000     0.839600000000     0          
O        O      0.166666666667     0.430350000000     0.592550000000     0          
O        O      0.090866666667     0.378000000000     0.581600000000     0          
O        O      0.090033333333     0.459800000000     0.557900000000     0          
O        O      0.093600000000     0.045650000000     0.692100000000     0          
O        O      0.166666666667     0.489450000000     0.700350000000     0          
O        O      0.000000000000     0.077300000000     0.594600000000     0          
T        Si     0.108000000000     0.428350000000     0.589250000000     0          
T        Si     0.109800000000     0.498650000000     0.708650000000     0          
T        Si     0.058400000000     0.077900000000     0.589600000000     0          
O        O      0.250000000000     0.055100000000     0.875000000000     0          
O        O      0.257533333333     0.122000000000     0.831600000000     0          
O        O      0.256700000000     0.040200000000     0.807900000000     0          
O        O      0.260266666667     0.454350000000     0.942100000000     0          
O        O      0.268100000000     0.000000000000     0.500000000000     0          
O        O      0.250000000000     0.439450000000     0.875000000000     0          
T        Si     0.274666666667     0.071650000000     0.839250000000     0          
T        Si     0.276466666667     0.001350000000     0.958650000000     0          
T        Si     0.225066666667     0.422100000000     0.839600000000     0          
O        O      0.250000000000     0.444900000000     0.625000000000     0          
O        O      0.242466666667     0.378000000000     0.581600000000     0          
O        O      0.243300000000     0.459800000000     0.557900000000     0          
O        O      0.239733333333     0.045650000000     0.692100000000     0          
O        O      0.231900000000     0.000000000000     0.750000000000     0          
O        O      0.250000000000     0.060550000000     0.625000000000     0          
T        Si     0.225333333333     0.428350000000     0.589250000000     0          
T        Si     0.223533333333     0.498650000000     0.708650000000     0          
T        Si     0.274933333333     0.077900000000     0.589600000000     0          
O        O      0.257533333333     0.378000000000     0.668400000000     0          
O        O      0.256700000000     0.459800000000     0.692100000000     0          
O        O      0.260266666667     0.045650000000     0.557900000000     0          
T        Si     0.274666666667     0.428350000000     0.660750000000     0          
T        Si     0.276466666667     0.498650000000     0.541350000000     0          
T        Si     0.225066666667     0.077900000000     0.660400000000     0          
O        O      0.242466666667     0.122000000000     0.918400000000     0          
O        O      0.243300000000     0.040200000000     0.942100000000     0          
O        O      0.239733333333     0.454350000000     0.807900000000     0          
T        Si     0.225333333333     0.071650000000     0.910750000000     0          
T        Si     0.223533333333     0.001350000000     0.791350000000     0          
T        Si     0.274933333333     0.422100000000     0.910400000000     0          
O        O      0.250000000000     0.194900000000     0.625000000000     0          
O        O      0.166666666667     0.180350000000     0.657450000000     0          
O        O      0.242466666667     0.128000000000     0.668400000000     0          
O        O      0.243300000000     0.209800000000     0.692100000000     0          
O        O      0.239733333333     0.295650000000     0.557900000000     0          
O        O      0.231900000000     0.250000000000     0.500000000000     0          
O        O      0.166666666667     0.239450000000     0.549650000000     0          
O        O      0.250000000000     0.310550000000     0.625000000000     0          
O        O      0.000000000000     0.327300000000     0.655400000000     0          
T        Si     0.225333333333     0.178350000000     0.660750000000     0          
T        Si     0.223533333333     0.248650000000     0.541350000000     0          
T        Si     0.274933333333     0.327900000000     0.660400000000     0          
O        O      0.250000000000     0.305100000000     0.875000000000     0          
O        O      0.000000000000     0.319650000000     0.907450000000     0          
O        O      0.257533333333     0.372000000000     0.918400000000     0          
O        O      0.256700000000     0.290200000000     0.942100000000     0          
O        O      0.260266666667     0.204350000000     0.807900000000     0          
O        O      0.268100000000     0.250000000000     0.750000000000     0          
O        O      0.000000000000     0.260550000000     0.799650000000     0          
O        O      0.250000000000     0.189450000000     0.875000000000     0          
O        O      0.166666666667     0.172700000000     0.905400000000     0          
T        Si     0.274666666667     0.321650000000     0.910750000000     0          
T        Si     0.276466666667     0.251350000000     0.791350000000     0          
T        Si     0.225066666667     0.172100000000     0.910400000000     0          
O        O      0.166666666667     0.319650000000     0.842550000000     0          
O        O      0.242466666667     0.372000000000     0.831600000000     0          
O        O      0.243300000000     0.290200000000     0.807900000000     0          
O        O      0.239733333333     0.204350000000     0.942100000000     0          
O        O      0.166666666667     0.260550000000     0.950350000000     0          
O        O      0.000000000000     0.172700000000     0.844600000000     0          
T        Si     0.225333333333     0.321650000000     0.839250000000     0          
T        Si     0.223533333333     0.251350000000     0.958650000000     0          
T        Si     0.274933333333     0.172100000000     0.839600000000     0          
O        O      0.000000000000     0.180350000000     0.592550000000     0          
O        O      0.257533333333     0.128000000000     0.581600000000     0          
O        O      0.256700000000     0.209800000000     0.557900000000     0          
O        O      0.260266666667     0.295650000000     0.692100000000     0          
O        O      0.000000000000     0.239450000000     0.700350000000     0          
O        O      0.166666666667     0.327300000000     0.594600000000     0          
T        Si     0.274666666667     0.178350000000     0.589250000000     0          
T        Si     0.276466666667     0.248650000000     0.708650000000     0          
T        Si     0.225066666667     0.327900000000     0.589600000000     0          
O        O      0.083333333333     0.305100000000     0.875000000000     0          
O        O      0.090866666667     0.372000000000     0.831600000000     0          
O        O      0.090033333333     0.290200000000     0.807900000000     0          
O        O      0.093600000000     0.204350000000     0.942100000000     0          
O        O      0.101433333333     0.250000000000     0.500000000000     0          
O        O      0.083333333333     0.189450000000     0.875000000000     0          
T        Si     0.108000000000     0.321650000000     0.839250000000     0          
T        Si     0.109800000000     0.251350000000     0.958650000000     0          
T        Si     0.058400000000     0.172100000000     0.839600000000     0          
O        O      0.083333333333     0.194900000000     0.625000000000     0          
O        O      0.075800000000     0.128000000000     0.581600000000     0          
O        O      0.076633333333     0.209800000000     0.557900000000     0          
O        O      0.073066666667     0.295650000000     0.692100000000     0          
O        O      0.065233333333     0.250000000000     0.750000000000     0          
O        O      0.083333333333     0.310550000000     0.625000000000     0          
T        Si     0.058666666667     0.178350000000     0.589250000000     0          
T        Si     0.056866666667     0.248650000000     0.708650000000     0          
T        Si     0.108266666667     0.327900000000     0.589600000000     0          
O        O      0.090866666667     0.128000000000     0.668400000000     0          
O        O      0.090033333333     0.209800000000     0.692100000000     0          
O        O      0.093600000000     0.295650000000     0.557900000000     0          
T        Si     0.108000000000     0.178350000000     0.660750000000     0          
T        Si     0.109800000000     0.248650000000     0.541350000000     0          
T        Si     0.058400000000     0.327900000000     0.660400000000     0          
O        O      0.075800000000     0.372000000000     0.918400000000     0          
O        O      0.076633333333     0.290200000000     0.942100000000     0          
O        O      0.073066666667     0.204350000000     0.807900000000     0          
T        Si     0.058666666667     0.321650000000     0.910750000000     0          
T        Si     0.056866666667     0.251350000000     0.791350000000     0          
T        Si     0.108266666667     0.172100000000     0.910400000000     0          
O        O      0.083333333333     0.944900000000     0.125000000000     0          
O        O      0.000000000000     0.930350000000     0.157450000000     0          
O        O      0.075800000000     0.878000000000     0.168400000000     0          
O        O      0.076633333333     0.959800000000     0.192100000000     0          
O        O      0.073066666667     0.545650000000     0.057900000000     0          
O        O      0.065233333333     0.500000000000     0.000000000000     0          
O        O      0.000000000000     0.989450000000     0.049650000000     0          
O        O      0.083333333333     0.560550000000     0.125000000000     0          
O        O      0.166666666667     0.577300000000     0.155400000000     0          
T        Si     0.058666666667     0.928350000000     0.160750000000     0          
T        Si     0.056866666667     0.998650000000     0.041350000000     0          
T        Si     0.108266666667     0.577900000000     0.160400000000     0          
O        O      0.083333333333     0.555100000000     0.375000000000     0          
O        O      0.166666666667     0.569650000000     0.407450000000     0          
O        O      0.090866666667     0.622000000000     0.418400000000     0          
O        O      0.090033333333     0.540200000000     0.442100000000     0          
O        O      0.093600000000     0.954350000000     0.307900000000     0          
O        O      0.101433333333     0.500000000000     0.250000000000     0          
O        O      0.166666666667     0.510550000000     0.299650000000     0          
O        O      0.083333333333     0.939450000000     0.375000000000     0          
O        O      0.000000000000     0.922700000000     0.405400000000     0          
T        Si     0.108000000000     0.571650000000     0.410750000000     0          
T        Si     0.109800000000     0.501350000000     0.291350000000     0          
T        Si     0.058400000000     0.922100000000     0.410400000000     0          
O        O      0.000000000000     0.569650000000     0.342550000000     0          
O        O      0.075800000000     0.622000000000     0.331600000000     0          
O        O      0.076633333333     0.540200000000     0.307900000000     0          
O        O      0.073066666667     0.954350000000     0.442100000000     0          
O        O      0.000000000000     0.510550000000     0.450350000000     0          
O        O      0.166666666667     0.922700000000     0.344600000000     0          
T        Si     0.058666666667     0.571650000000     0.339250000000     0          
T        Si     0.056866666667     0.501350000000     0.458650000000     0          
T        Si     0.108266666667     0.922100000000     0.339600000000     0          
O        O      0.166666666667     0.930350000000     0.092550000000     0          
O        O      0.090866666667     0.878000000000     0.081600000000     0          
O        O      0.090033333333     0.959800000000     0.057900000000     0          
O        O      0.093600000000     0.545650000000     0.192100000000     0          
O        O      0.166666666667     0.989450000000     0.200350000000     0          
O        O      0.000000000000     0.577300000000     0.094600000000     0          
T        Si     0.108000000000     0.928350000000     0.089250000000     0          
T        Si     0.109800000000     0.998650000000     0.208650000000     0          
T        Si     0.058400000000     0.577900000000     0.089600000000     0          
O        O      0.250000000000     0.555100000000     0.375000000000     0          
O        O      0.257533333333     0.622000000000     0.331600000000     0          
O        O      0.256700000000     0.540200000000     0.307900000000     0          
O        O      0.260266666667     0.954350000000     0.442100000000     0          
O        O      0.268100000000     0.500000000000     0.000000000000     0          
O        O      0.250000000000     0.939450000000     0.375000000000     0          
T        Si     0.274666666667     0.571650000000     0.339250000000     0          
T        Si     0.276466666667     0.501350000000     0.458650000000     0          
T        Si     0.225066666667     0.922100000000     0.339600000000     0          
O        O      0.250000000000     0.944900000000     0.125000000000     0          
O        O      0.242466666667     0.878000000000     0.081600000000     0          
O        O      0.243300000000     0.959800000000     0.057900000000     0          
O        O      0.239733333333     0.545650000000     0.192100000000     0          
O        O      0.231900000000     0.500000000000     0.250000000000     0          
O        O      0.250000000000     0.560550000000     0.125000000000     0          
T        Si     0.225333333333     0.928350000000     0.089250000000     0          
T        Si     0.223533333333     0.998650000000     0.208650000000     0          
T        Si     0.274933333333     0.577900000000     0.089600000000     0          
O        O      0.257533333333     0.878000000000     0.168400000000     0          
O        O      0.256700000000     0.959800000000     0.192100000000     0          
O        O      0.260266666667     0.545650000000     0.057900000000     0          
T        Si     0.274666666667     0.928350000000     0.160750000000     0          
T        Si     0.276466666667     0.998650000000     0.041350000000     0          
T        Si     0.225066666667     0.577900000000     0.160400000000     0          
O        O      0.242466666667     0.622000000000     0.418400000000     0          
O        O      0.243300000000     0.540200000000     0.442100000000     0          
O        O      0.239733333333     0.954350000000     0.307900000000     0          
T        Si     0.225333333333     0.571650000000     0.410750000000     0          
T        Si     0.223533333333     0.501350000000     0.291350000000     0          
T        Si     0.274933333333     0.922100000000     0.410400000000     0          
O        O      0.250000000000     0.694900000000     0.125000000000     0          
O        O      0.166666666667     0.680350000000     0.157450000000     0          
O        O      0.242466666667     0.628000000000     0.168400000000     0          
O        O      0.243300000000     0.709800000000     0.192100000000     0          
O        O      0.239733333333     0.795650000000     0.057900000000     0          
O        O      0.231900000000     0.750000000000     0.000000000000     0          
O        O      0.166666666667     0.739450000000     0.049650000000     0          
O        O      0.250000000000     0.810550000000     0.125000000000     0          
O        O      0.000000000000     0.827300000000     0.155400000000     0          
T        Si     0.225333333333     0.678350000000     0.160750000000     0          
T        Si     0.223533333333     0.748650000000     0.041350000000     0          
T        Si     0.274933333333     0.827900000000     0.160400000000     0          
O        O      0.250000000000     0.805100000000     0.375000000000     0          
O        O      0.000000000000     0.819650000000     0.407450000000     0          
O        O      0.257533333333     0.872000000000     0.418400000000     0          
O        O      0.256700000000     0.790200000000     0.442100000000     0          
O        O      0.260266666667     0.704350000000     0.307900000000     0          
O        O      0.268100000000     0.750000000000     0.250000000000     0          
O        O      0.000000000000     0.760550000000     0.299650000000     0          
O        O      0.250000000000     0.689450000000     0.375000000000     0          
O        O      0.166666666667     0.672700000000     0.405400000000     0          
T        Si     0.274666666667     0.821650000000     0.410750000000     0          
T        Si     0.276466666667     0.751350000000     0.291350000000     0          
T        Si     0.225066666667     0.672100000000     0.410400000000     0          
O        O      0.166666666667     0.819650000000     0.342550000000     0          
O        O      0.242466666667     0.872000000000     0.331600000000     0          
O        O      0.243300000000     0.790200000000     0.307900000000     0          
O        O      0.239733333333     0.704350000000     0.442100000000     0          
O        O      0.166666666667     0.760550000000     0.450350000000     0          
O        O      0.000000000000     0.672700000000     0.344600000000     0          
T        Si     0.225333333333     0.821650000000     0.339250000000     0          
T        Si     0.223533333333     0.751350000000     0.458650000000     0          
T        Si     0.274933333333     0.672100000000     0.339600000000     0          
O        O      0.000000000000     0.680350000000     0.092550000000     0          
O        O      0.257533333333     0.628000000000     0.081600000000     0          
O        O      0.256700000000     0.709800000000     0.057900000000     0          
O        O      0.260266666667     0.795650000000     0.192100000000     0          
O        O      0.000000000000     0.739450000000     0.200350000000     0          
O        O      0.166666666667     0.827300000000     0.094600000000     0          
T        Si     0.274666666667     0.678350000000     0.089250000000     0          
T        Si     0.276466666667     0.748650000000     0.208650000000     0          
T        Si     0.225066666667     0.827900000000     0.089600000000     0          
O        O      0.083333333333     0.805100000000     0.375000000000     0          
O        O      0.090866666667     0.872000000000     0.331600000000     0          
O        O      0.090033333333     0.790200000000     0.307900000000     0          
O        O      0.093600000000     0.704350000000     0.442100000000     0          
O        O      0.101433333333     0.750000000000     0.000000000000     0          
O        O      0.083333333333     0.689450000000     0.375000000000     0          
T        Si     0.108000000000     0.821650000000     0.339250000000     0          
T        Si     0.109800000000     0.751350000000     0.458650000000     0          
T        Si     0.058400000000     0.672100000000     0.339600000000     0          
O        O      0.083333333333     0.694900000000     0.125000000000     0          
O        O      0.075800000000     0.628000000000     0.081600000000     0          
O        O      0.076633333333     0.709800000000     0.057900000000     0          
O        O      0.073066666667     0.795650000000     0.192100000000     0          
O        O      0.065233333333     0.750000000000     0.250000000000     0          
O        O      0.083333333333     0.810550000000     0.125000000000     0          
T        Si     0.058666666667     0.678350000000     0.089250000000     0          
T        Si     0.056866666667     0.748650000000     0.208650000000     0          
T        Si     0.108266666667     0.827900000000     0.089600000000     0          
O        O      0.090866666667     0.628000000000     0.168400000000     0          
O        O      0.090033333333     0.709800000000     0.192100000000     0          
O        O      0.093600000000     0.795650000000     0.057900000000     0          
T        Si     0.108000000000     0.678350000000     0.160750000000     0          
T        Si     0.109800000000     0.748650000000     0.041350000000     0          
T        Si     0.058400000000     0.827900000000     0.160400000000     0          
O        O      0.075800000000     0.872000000000     0.418400000000     0          
O        O      0.076633333333     0.790200000000     0.442100000000     0          
O        O      0.073066666667     0.704350000000     0.307900000000     0          
T        Si     0.058666666667     0.821650000000     0.410750000000     0          
T        Si     0.056866666667     0.751350000000     0.291350000000     0          
T        Si     0.108266666667     0.672100000000     0.410400000000     0          
O        O      0.083333333333     0.944900000000     0.625000000000     0          
O        O      0.000000000000     0.930350000000     0.657450000000     0          
O        O      0.075800000000     0.878000000000     0.668400000000     0          
O        O      0.076633333333     0.959800000000     0.692100000000     0          
O        O      0.073066666667     0.545650000000     0.557900000000     0          
O        O      0.065233333333     0.500000000000     0.500000000000     0          
O        O      0.000000000000     0.989450000000     0.549650000000     0          
O        O      0.083333333333     0.560550000000     0.625000000000     0          
O        O      0.166666666667     0.577300000000     0.655400000000     0          
T        Si     0.058666666667     0.928350000000     0.660750000000     0          
T        Si     0.056866666667     0.998650000000     0.541350000000     0          
T        Si     0.108266666667     0.577900000000     0.660400000000     0          
O        O      0.083333333333     0.555100000000     0.875000000000     0          
O        O      0.166666666667     0.569650000000     0.907450000000     0          
O        O      0.090866666667     0.622000000000     0.918400000000     0          
O        O      0.090033333333     0.540200000000     0.942100000000     0          
O        O      0.093600000000     0.954350000000     0.807900000000     0          
O        O      0.101433333333     0.500000000000     0.750000000000     0          
O        O      0.166666666667     0.510550000000     0.799650000000     0          
O        O      0.083333333333     0.939450000000     0.875000000000     0          
O        O      0.000000000000     0.922700000000     0.905400000000     0          
T        Si     0.108000000000     0.571650000000     0.910750000000     0          
T        Si     0.109800000000     0.501350000000     0.791350000000     0          
T        Si     0.058400000000     0.922100000000     0.910400000000     0          
O        O      0.000000000000     0.569650000000     0.842550000000     0          
O        O      0.075800000000     0.622000000000     0.831600000000     0          
O        O      0.076633333333     0.540200000000     0.807900000000     0          
O        O      0.073066666667     0.954350000000     0.942100000000     0          
O        O      0.000000000000     0.510550000000     0.950350000000     0          
O        O      0.166666666667     0.922700000000     0.844600000000     0          
T        Si     0.058666666667     0.571650000000     0.839250000000     0          
T        Si     0.056866666667     0.501350000000     0.958650000000     0          
T        Si     0.108266666667     0.922100000000     0.839600000000     0          
O        O      0.166666666667     0.930350000000     0.592550000000     0          
O        O      0.090866666667     0.878000000000     0.581600000000     0          
O        O      0.090033333333     0.959800000000     0.557900000000     0          
O        O      0.093600000000     0.545650000000     0.692100000000     0          
O        O      0.166666666667     0.989450000000     0.700350000000     0          
O        O      0.000000000000     0.577300000000     0.594600000000     0          
T        Si     0.108000000000     0.928350000000     0.589250000000     0          
T        Si     0.109800000000     0.998650000000     0.708650000000     0          
T        Si     0.058400000000     0.577900000000     0.589600000000     0          
O        O      0.250000000000     0.555100000000     0.875000000000     0          
O        O      0.257533333333     0.622000000000     0.831600000000     0          
O        O      0.256700000000     0.540200000000     0.807900000000     0          
O        O      0.260266666667     0.954350000000     0.942100000000     0          
O        O      0.268100000000     0.500000000000     0.500000000000     0          
O        O      0.250000000000     0.939450000000     0.875000000000     0          
T        Si     0.274666666667     0.571650000000     0.839250000000     0          
T        Si     0.276466666667     0.501350000000     0.958650000000     0          
T        Si     0.225066666667     0.922100000000     0.839600000000     0          
O        O      0.250000000000     0.944900000000     0.625000000000     0          
O        O      0.242466666667     0.878000000000     0.581600000000     0          
O        O      0.243300000000     0.959800000000     0.557900000000     0          
O        O      0.239733333333     0.545650000000     0.692100000000     0          
O        O      0.231900000000     0.500000000000     0.750000000000     0          
O        O      0.250000000000     0.560550000000     0.625000000000     0          
T        Si     0.225333333333     0.928350000000     0.589250000000     0          
T        Si     0.223533333333     0.998650000000     0.708650000000     0          
T        Si     0.274933333333     0.577900000000     0.589600000000     0          
O        O      0.257533333333     0.878000000000     0.668400000000     0          
O        O      0.256700000000     0.959800000000     0.692100000000     0          
O        O      0.260266666667     0.545650000000     0.557900000000     0          
T        Si     0.274666666667     0.928350000000     0.660750000000     0          
T        Si     0.276466666667     0.998650000000     0.541350000000     0          
T        Si     0.225066666667     0.577900000000     0.660400000000     0          
O        O      0.242466666667     0.622000000000     0.918400000000     0          
O        O      0.243300000000     0.540200000000     0.942100000000     0          
O        O      0.239733333333     0.954350000000     0.807900000000     0          
T        Si     0.225333333333     0.571650000000     0.910750000000     0          
T        Si     0.223533333333     0.501350000000     0.791350000000     0          
T        Si     0.274933333333     0.922100000000     0.910400000000     0          
O        O      0.250000000000     0.694900000000     0.625000000000     0          
O        O      0.166666666667     0.680350000000     0.657450000000     0          
O        O      0.242466666667     0.628000000000     0.668400000000     0          
O        O      0.243300000000     0.709800000000     0.692100000000     0          
O        O      0.239733333333     0.795650000000     0.557900000000     0          
O        O      0.231900000000     0.750000000000     0.500000000000     0          
O        O      0.166666666667     0.739450000000     0.549650000000     0          
O        O      0.250000000000     0.810550000000     0.625000000000     0          
O        O      0.000000000000     0.827300000000     0.655400000000     0          
T        Si     0.225333333333     0.678350000000     0.660750000000     0          
T        Si     0.223533333333     0.748650000000     0.541350000000     0          
T        Si     0.274933333333     0.827900000000     0.660400000000     0          
O        O      0.250000000000     0.805100000000     0.875000000000     0          
O        O      0.000000000000     0.819650000000     0.907450000000     0          
O        O      0.257533333333     0.872000000000     0.918400000000     0          
O        O      0.256700000000     0.790200000000     0.942100000000     0          
O        O      0.260266666667     0.704350000000     0.807900000000     0          
O        O      0.268100000000     0.750000000000     0.750000000000     0          
O        O      0.000000000000     0.760550000000     0.799650000000     0          
O        O      0.250000000000     0.689450000000     0.875000000000     0          
O        O      0.166666666667     0.672700000000     0.905400000000     0          
T        Si     0.274666666667     0.821650000000     0.910750000000     0          
T        Si     0.276466666667     0.751350000000     0.791350000000     0          
T        Si     0.225066666667     0.672100000000     0.910400000000     0          
O        O      0.166666666667     0.819650000000     0.842550000000     0          
O        O      0.242466666667     0.872000000000     0.831600000000     0          
O        O      0.243300000000     0.790200000000     0.807900000000     0          
O        O      0.239733333333     0.704350000000     0.942100000000     0          
O        O      0.166666666667     0.760550000000     0.950350000000     0          
O        O      0.000000000000     0.672700000000     0.844600000000     0          
T        Si     0.225333333333     0.821650000000     0.839250000000     0          
T        Si     0.223533333333     0.751350000000     0.958650000000     0          
T        Si     0.274933333333     0.672100000000     0.839600000000     0          
O        O      0.000000000000     0.680350000000     0.592550000000     0          
O        O      0.257533333333     0.628000000000     0.581600000000     0          
O        O      0.256700000000     0.709800000000     0.557900000000     0          
O        O      0.260266666667     0.795650000000     0.692100000000     0          
O        O      0.000000000000     0.739450000000     0.700350000000     0          
O        O      0.166666666667     0.827300000000     0.594600000000     0          
T        Si     0.274666666667     0.678350000000     0.589250000000     0          
T        Si     0.276466666667     0.748650000000     0.708650000000     0          
T        Si     0.225066666667     0.827900000000     0.589600000000     0          
O        O      0.083333333333     0.805100000000     0.875000000000     0          
O        O      0.090866666667     0.872000000000     0.831600000000     0          
O        O      0.090033333333     0.790200000000     0.807900000000     0          
O        O      0.093600000000     0.704350000000     0.942100000000     0          
O        O      0.101433333333     0.750000000000     0.500000000000     0          
O        O      0.083333333333     0.689450000000     0.875000000000     0          
T        Si     0.108000000000     0.821650000000     0.839250000000     0          
T        Si     0.109800000000     0.751350000000     0.958650000000     0          
T        Si     0.058400000000     0.672100000000     0.839600000000     0          
O        O      0.083333333333     0.694900000000     0.625000000000     0          
O        O      0.075800000000     0.628000000000     0.581600000000     0          
O        O      0.076633333333     0.709800000000     0.557900000000     0          
O        O      0.073066666667     0.795650000000     0.692100000000     0          
O        O      0.065233333333     0.750000000000     0.750000000000     0          
O        O      0.083333333333     0.810550000000     0.625000000000     0          
T        Si     0.058666666667     0.678350000000     0.589250000000     0          
T        Si     0.056866666667     0.748650000000     0.708650000000     0          
T        Si     0.108266666667     0.827900000000     0.589600000000     0          
O        O      0.090866666667     0.628000000000     0.668400000000     0          
O        O      0.090033333333     0.709800000000     0.692100000000     0          
O        O      0.093600000000     0.795650000000     0.557900000000     0          
T        Si     0.108000000000     0.678350000000     0.660750000000     0          
T        Si     0.109800000000     0.748650000000     0.541350000000     0          
T        Si     0.058400000000     0.827900000000     0.660400000000     0          
O        O      0.075800000000     0.872000000000     0.918400000000     0          
O        O      0.076633333333     0.790200000000     0.942100000000     0          
O        O      0.073066666667     0.704350000000     0.807900000000     0          
T        Si     0.058666666667     0.821650000000     0.910750000000     0          
T        Si     0.056866666667     0.751350000000     0.791350000000     0          
T        Si     0.108266666667     0.672100000000     0.910400000000     0          
O        O      0.416666666667     0.444900000000     0.125000000000     0          
O        O      0.333333333333     0.430350000000     0.157450000000     0          
O        O      0.409133333333     0.378000000000     0.168400000000     0          
O        O      0.409966666667     0.459800000000     0.192100000000     0          
O        O      0.406400000000     0.045650000000     0.057900000000     0          
O        O      0.398566666667     0.000000000000     0.000000000000     0          
O        O      0.333333333333     0.489450000000     0.049650000000     0          
O        O      0.416666666667     0.060550000000     0.125000000000     0          
O        O      0.500000000000     0.077300000000     0.155400000000     0          
T        Si     0.392000000000     0.428350000000     0.160750000000     0          
T        Si     0.390200000000     0.498650000000     0.041350000000     0          
T        Si     0.441600000000     0.077900000000     0.160400000000     0          
O        O      0.416666666667     0.055100000000     0.375000000000     0          
O        O      0.500000000000     0.069650000000     0.407450000000     0          
O        O      0.424200000000     0.122000000000     0.418400000000     0          
O        O      0.423366666667     0.040200000000     0.442100000000     0          
O        O      0.426933333333     0.454350000000     0.307900000000     0          
O        O      0.434766666667     0.000000000000     0.250000000000     0          
O        O      0.500000000000     0.010550000000     0.299650000000     0          
O        O      0.416666666667     0.439450000000     0.375000000000     0          
O        O      0.333333333333     0.422700000000     0.405400000000     0          
T        Si     0.441333333333     0.071650000000     0.410750000000     0          
T        Si     0.443133333333     0.001350000000     0.291350000000     0          
T        Si     0.391733333333     0.422100000000     0.410400000000     0          
O        O      0.333333333333     0.069650000000     0.342550000000     0          
O        O      0.409133333333     0.122000000000     0.331600000000     0          
O        O      0.409966666667     0.040200000000     0.307900000000     0          
O        O      0.406400000000     0.454350000000     0.442100000000     0          
O        O      0.333333333333     0.010550000000     0.450350000000     0          
O        O      0.500000000000     0.422700000000     0.344600000000     0          
T        Si     0.392000000000     0.071650000000     0.339250000000     0          
T        Si     0.390200000000     0.001350000000     0.458650000000     0          
T        Si     0.441600000000     0.422100000000     0.339600000000     0          
O        O      0.500000000000     0.430350000000     0.092550000000     0          
O        O      0.424200000000     0.378000000000     0.081600000000     0          
O        O      0.423366666667     0.459800000000     0.057900000000     0          
O        O      0.426933333333     0.045650000000     0.192100000000     0          
O        O      0.500000000000     0.489450000000     0.200350000000     0          
O        O      0.333333333333     0.077300000000     0.094600000000     0          
T        Si     0.441333333333     0.428350000000     0.089250000000     0          
T        Si     0.443133333333     0.498650000000     0.208650000000     0          
T        Si     0.391733333333     0.077900000000     0.089600000000     0          
O        O      0.583333333333     0.055100000000     0.375000000000     0          
O        O      0.590866666667     0.122000000000     0.331600000000     0          
O        O      0.590033333333     0.040200000000     0.307900000000     0          
O        O      0.593600000000     0.454350000000     0.442100000000     0          
O        O      0.601433333333     0.000000000000     0.000000000000     0          
O        O      0.583333333333     0.439450000000     0.375000000000     0          
T        Si     0.608000000000     0.071650000000     0.339250000000     0          
T        Si     0.609800000000     0.001350000000     0.458650000000     0          
T        Si     0.558400000000     0.422100000000     0.339600000000     0          
O        O      0.583333333333     0.444900000000     0.125000000000     0          
O        O      0.575800000000     0.378000000000     0.081600000000     0          
O        O      0.576633333333     0.459800000000     0.057900000000     0          
O        O      0.573066666667     0.045650000000     0.192100000000     0          
O        O      0.565233333333     0.000000000000     0.250000000000     0          
O        O      0.583333333333     0.060550000000     0.125000000000     0          
T        Si     0.558666666667     0.428350000000     0.089250000000     0          
T        Si     0.556866666667     0.498650000000     0.208650000000     0          
T        Si     0.608266666667     0.077900000000     0.089600000000     0          
O        O      0.590866666667     0.378000000000     0.168400000000     0          
O        O      0.590033333333     0.459800000000     0.192100000000     0          
O        O      0.593600000000     0.045650000000     0.057900000000     0          
T        Si     0.608000000000     0.428350000000     0.160750000000     0          
T        Si     0.609800000000     0.498650000000     0.041350000000     0          
T        Si     0.558400000000     0.077900000000     0.160400000000     0          
O        O      0.575800000000     0.122000000000     0.418400000000     0          
O        O      0.576633333333     0.040200000000     0.442100000000     0          
O        O      0.573066666667     0.454350000000     0.307900000000     0          
T        Si     0.558666666667     0.071650000000     0.410750000000     0          
T        Si     0.556866666667     0.001350000000     0.291350000000     0          
T        Si     0.608266666667     0.422100000000     0.410400000000     0          
O        O      0.583333333333     0.194900000000     0.125000000000     0          
O        O      0.500000000000     0.180350000000     0.157450000000     0          
O        O      0.575800000000     0.128000000000     0.168400000000     0          
O        O      0.576633333333     0.209800000000     0.192100000000     0          
O        O      0.573066666667     0.295650000000     0.057900000000     0          
O        O      0.565233333333     0.250000000000     0.000000000000     0          
O        O      0.500000000000     0.239450000000     0.049650000000     0          
O        O      0.583333333333     0.310550000000     0.125000000000     0          
O        O      0.333333333333     0.327300000000     0.155400000000     0          
T        Si     0.558666666667     0.178350000000     0.160750000000     0          
T        Si     0.556866666667     0.248650000000     0.041350000000     0          
T        Si     0.608266666667     0.327900000000     0.160400000000     0          
O        O      0.583333333333     0.305100000000     0.375000000000     0          
O        O      0.333333333333     0.319650000000     0.407450000000     0          
O        O      0.590866666667     0.372000000000     0.418400000000     0          
O        O      0.590033333333     0.290200000000     0.442100000000     0          
O        O      0.593600000000     0.204350000000     0.307900000000     0          
O        O      0.601433333333     0.250000000000     0.250000000000     0          
O        O      0.333333333333     0.260550000000     0.299650000000     0          
O        O      0.583333333333     0.189450000000     0.375000000000     0          
O        O      0.500000000000     0.172700000000     0.405400000000     0          
T        Si     0.608000000000     0.321650000000     0.410750000000     0          
T        Si     0.609800000000     0.251350000000     0.291350000000     0          
T        Si     0.558400000000     0.172100000000     0.410400000000     0          
O        O      0.500000000000     0.319650000000     0.342550000000     0          
O        O      0.575800000000     0.372000000000     0.331600000000     0          
O        O      0.576633333333     0.290200000000     0.307900000000     0          
O        O      0.573066666667     0.204350000000     0.442100000000     0          
O        O      0.500000000000     0.260550000000     0.450350000000     0          
O        O      0.333333333333     0.172700000000     0.344600000000     0          
T        Si     0.558666666667     0.321650000000     0.339250000000     0          
T        Si     0.556866666667     0.251350000000     0.458650000000     0          
T        Si     0.608266666667     0.172100000000     0.339600000000     0          
O        O      0.333333333333     0.180350000000     0.092550000000     0          
O        O      0.590866666667     0.128000000000     0.081600000000     0          
O        O      0.590033333333     0.209800000000     0.057900000000     0          
O        O      0.593600000000     0.295650000000     0.192100000000     0          
O        O      0.333333333333     0.239450000000     0.200350000000     0          
O        O      0.500000000000     0.327300000000     0.094600000000     0          
T        Si     0.608000000000     0.178350000000     0.089250000000     0          
T        Si     0.609800000000     0.248650000000     0.208650000000     0          
T        Si     0.558400000000     0.327900000000     0.089600000000     0          
O        O      0.416666666667     0.305100000000     0.375000000000     0          
O        O      0.424200000000     0.372000000000     0.331600000000     0          
O        O      0.423366666667     0.290200000000     0.307900000000     0          
O        O      0.426933333333     0.204350000000     0.442100000000     0          
O        O      0.434766666667     0.250000000000     0.000000000000     0          
O        O      0.416666666667     0.189450000000     0.375000000000     0          
T        Si     0.441333333333     0.321650000000     0.339250000000     0          
T        Si     0.443133333333     0.251350000000     0.458650000000     0          
T        Si     0.391733333333     0.172100000000     0.339600000000     0          
O        O      0.416666666667     0.194900000000     0.125000000000     0          
O        O      0.409133333333     0.128000000000     0.081600000000     0          
O        O      0.409966666667     0.209800000000     0.057900000000     0          
O        O      0.406400000000     0.295650000000     0.192100000000     0          
O        O      0.398566666667     0.250000000000     0.250000000000     0          
O        O      0.416666666667     0.310550000000     0.125000000000     0          
T        Si     0.392000000000     0.178350000000     0.089250000000     0          
T        Si     0.390200000000     0.248650000000     0.208650000000     0          
T        Si     0.441600000000     0.327900000000     0.089600000000     0          
O        O      0.424200000000     0.128000000000     0.168400000000     0          
O        O      0.423366666667     0.209800000000     0.192100000000     0          
O        O      0.426933333333     0.295650000000     0.057900000000     0          
T        Si     0.441333333333     0.178350000000     0.160750000000     0          
T        Si     0.443133333333     0.248650000000     0.041350000000     0          
T        Si     0.391733333333     0.327900000000     0.160400000000     0          
O        O      0.409133333333     0.372000000000     0.418400000000     0          
O        O      0.409966666667     0.290200000000     0.442100000000     0          
O        O      0.406400000000     0.204350000000     0.307900000000     0          
T        Si     0.392000000000     0.321650000000     0.410750000000     0          
T        Si     0.390200000000     0.251350000000     0.291350000000     0          
T        Si     0.441600000000     0.172100000000     0.410400000000     0          
O        O      0.416666666667     0.444900000000     0.625000000000     0          
O        O      0.333333333333     0.430350000000     0.657450000000     0          
O        O      0.409133333333     0.378000000000     0.668400000000     0          
O        O      0.409966666667     0.459800000000     0.692100000000     0          
O        O      0.406400000000     0.045650000000     0.557900000000     0          
O        O      0.398566666667     0.000000000000     0.500000000000     0          
O        O      0.333333333333     0.489450000000     0.549650000000     0          
O        O      0.416666666667     0.060550000000     0.625000000000     0          
O        O      0.500000000000     0.077300000000     0.655400000000     0          
T        Si     0.392000000000     0.428350000000     0.660750000000     0          
T        Si     0.390200000000     0.498650000000     0.541350000000     0          
T        Si     0.441600000000     0.077900000000     0.660400000000     0          
O        O      0.416666666667     0.055100000000     0.875000000000     0          
O        O      0.500000000000     0.069650000000     0.907450000000     0          
O        O      0.424200000000     0.122000000000     0.918400000000     0          
O        O      0.423366666667     0.040200000000     0.942100000000     0          
O        O      0.426933333333     0.454350000000     0.807900000000     0          
O        O      0.434766666667     0.000000000000     0.750000000000     0          
O        O      0.500000000000     0.010550000000     0.799650000000     0          
O        O      0.416666666667     0.439450000000     0.875000000000     0          
O        O      0.333333333333     0.422700000000     0.905400000000     0          
T        Si     0.441333333333     0.071650000000     0.910750000000     0          
T        Si     0.443133333333     0.001350000000     0.791350000000     0          
T        Si     0.391733333333     0.422100000000     0.910400000000     0          
O        O      0.333333333333     0.069650000000     0.842550000000     0          
O        O      0.409133333333     0.122000000000     0.831600000000     0          
O        O      0.409966666667     0.040200000000     0.807900000000     0          
O        O      0.406400000000     0.454350000000     0.942100000000     0          
O        O      0.333333333333     0.010550000000     0.950350000000     0          
O        O      0.500000000000     0.422700000000     0.844600000000     0          
T        Si     0.392000000000     0.071650000000     0.839250000000     0          
T        Si     0.390200000000     0.001350000000     0.958650000000     0          
T        Si     0.441600000000     0.422100000000     0.839600000000     0          
O        O      0.500000000000     0.430350000000     0.592550000000     0          
O        O      0.424200000000     0.378000000000     0.581600000000     0          
O        O      0.423366666667     0.459800000000     0.557900000000     0          
O        O      0.426933333333     0.045650000000     0.692100000000     0          
O        O      0.500000000000     0.489450000000     0.700350000000     0          
O        O      0.333333333333     0.077300000000     0.594600000000     0          
T        Si     0.441333333333     0.428350000000     0.589250000000     0          
T        Si     0.443133333333     0.498650000000     0.708650000000     0          
T        Si     0.391733333333     0.077900000000     0.589600000000     0          
O        O      0.583333333333     0.055100000000     0.875000000000     0          
O        O      0.590866666667     0.122000000000     0.831600000000     0          
O        O      0.590033333333     0.040200000000     0.807900000000     0          
O        O      0.593600000000     0.454350000000     0.942100000000     0          
O        O      0.601433333333     0.000000000000     0.500000000000     0          
O        O      0.583333333333     0.439450000000     0.875000000000     0          
T        Si     0.608000000000     0.071650000000     0.839250000000     0          
T        Si     0.609800000000     0.001350000000     0.958650000000     0          
T        Si     0.558400000000     0.422100000000     0.839600000000     0          
O        O      0.583333333333     0.444900000000     0.625000000000     0          
O        O      0.575800000000     0.378000000000     0.581600000000     0          
O        O      0.576633333333     0.459800000000     0.557900000000     0          
O        O      0.573066666667     0.045650000000     0.692100000000     0          
O        O      0.565233333333     0.000000000000     0.750000000000     0          
O        O      0.583333333333     0.060550000000     0.625000000000     0          
T        Si     0.558666666667     0.428350000000     0.589250000000     0          
T        Si     0.556866666667     0.498650000000     0.708650000000     0          
T        Si     0.608266666667     0.077900000000     0.589600000000     0          
O        O      0.590866666667     0.378000000000     0.668400000000     0          
O        O      0.590033333333     0.459800000000     0.692100000000     0          
O        O      0.593600000000     0.045650000000     0.557900000000     0          
T        Si     0.608000000000     0.428350000000     0.660750000000     0          
T        Si     0.609800000000     0.498650000000     0.541350000000     0          
T        Si     0.558400000000     0.077900000000     0.660400000000     0          
O        O      0.575800000000     0.122000000000     0.918400000000     0          
O        O      0.576633333333     0.040200000000     0.942100000000     0          
O        O      0.573066666667     0.454350000000     0.807900000000     0          
T        Si     0.558666666667     0.071650000000     0.910750000000     0          
T        Si     0.556866666667     0.001350000000     0.791350000000     0          
T        Si     0.608266666667     0.422100000000     0.910400000000     0          
O        O      0.583333333333     0.194900000000     0.625000000000     0          
O        O      0.500000000000     0.180350000000     0.657450000000     0          
O        O      0.575800000000     0.128000000000     0.668400000000     0          
O        O      0.576633333333     0.209800000000     0.692100000000     0          
O        O      0.573066666667     0.295650000000     0.557900000000     0          
O        O      0.565233333333     0.250000000000     0.500000000000     0          
O        O      0.500000000000     0.239450000000     0.549650000000     0          
O        O      0.583333333333     0.310550000000     0.625000000000     0          
O        O      0.333333333333     0.327300000000     0.655400000000     0          
T        Si     0.558666666667     0.178350000000     0.660750000000     0          
T        Si     0.556866666667     0.248650000000     0.541350000000     0          
T        Si     0.608266666667     0.327900000000     0.660400000000     0          
O        O      0.583333333333     0.305100000000     0.875000000000     0          
O        O      0.333333333333     0.319650000000     0.907450000000     0          
O        O      0.590866666667     0.372000000000     0.918400000000     0          
O        O      0.590033333333     0.290200000000     0.942100000000     0          
O        O      0.593600000000     0.204350000000     0.807900000000     0          
O        O      0.601433333333     0.250000000000     0.750000000000     0          
O        O      0.333333333333     0.260550000000     0.799650000000     0          
O        O      0.583333333333     0.189450000000     0.875000000000     0          
O        O      0.500000000000     0.172700000000     0.905400000000     0          
T        Si     0.608000000000     0.321650000000     0.910750000000     0          
T        Si     0.609800000000     0.251350000000     0.791350000000     0          
T        Si     0.558400000000     0.172100000000     0.910400000000     0          
O        O      0.500000000000     0.319650000000     0.842550000000     0          
O        O      0.575800000000     0.372000000000     0.831600000000     0          
O        O      0.576633333333     0.290200000000     0.807900000000     0          
O        O      0.573066666667     0.204350000000     0.942100000000     0          
O        O      0.500000000000     0.260550000000     0.950350000000     0          
O        O      0.333333333333     0.172700000000     0.844600000000     0          
T        Si     0.558666666667     0.321650000000     0.839250000000     0          
T        Si     0.556866666667     0.251350000000     0.958650000000     0          
T        Si     0.608266666667     0.172100000000     0.839600000000     0          
O        O      0.333333333333     0.180350000000     0.592550000000     0          
O        O      0.590866666667     0.128000000000     0.581600000000     0          
O        O      0.590033333333     0.209800000000     0.557900000000     0          
O        O      0.593600000000     0.295650000000     0.692100000000     0          
O        O      0.333333333333     0.239450000000     0.700350000000     0          
O        O      0.500000000000     0.327300000000     0.594600000000     0          
T        Si     0.608000000000     0.178350000000     0.589250000000     0          
T        Si     0.609800000000     0.248650000000     0.708650000000     0          
T        Si     0.558400000000     0.327900000000     0.589600000000     0          
O        O      0.416666666667     0.305100000000     0.875000000000     0          
O        O      0.424200000000     0.372000000000     0.831600000000     0          
O        O      0.423366666667     0.290200000000     0.807900000000     0          
O        O      0.426933333333     0.204350000000     0.942100000000     0          
O        O      0.434766666667     0.250000000000     0.500000000000     0          
O        O      0.416666666667     0.189450000000     0.875000000000     0          
T        Si     0.441333333333     0.321650000000     0.839250000000     0          
T        Si     0.443133333333     0.251350000000     0.958650000000     0          
T        Si     0.391733333333     0.172100000000     0.839600000000     0          
O        O      0.416666666667     0.194900000000     0.625000000000     0          
O        O      0.409133333333     0.128000000000     0.581600000000     0          
O        O      0.409966666667     0.209800000000     0.557900000000     0          
O        O      0.406400000000     0.295650000000     0.692100000000     0          
O        O      0.398566666667     0.250000000000     0.750000000000     0          
O        O      0.416666666667     0.310550000000     0.625000000000     0          
T        Si     0.392000000000     0.178350000000     0.589250000000     0          
T        Si     0.390200000000     0.248650000000     0.708650000000     0          
T        Si     0.441600000000     0.327900000000     0.589600000000     0          
O        O      0.424200000000     0.128000000000     0.668400000000     0          
O        O      0.423366666667     0.209800000000     0.692100000000     0          
O        O      0.426933333333     0.295650000000     0.557900000000     0          
T        Si     0.441333333333     0.178350000000     0.660750000000     0          
T        Si     0.443133333333     0.248650000000     0.541350000000     0          
T        Si     0.391733333333     0.327900000000     0.660400000000     0          
O        O      0.409133333333     0.372000000000     0.918400000000     0          
O        O      0.409966666667     0.290200000000     0.942100000000     0          
O        O      0.406400000000     0.204350000000     0.807900000000     0          
T        Si     0.392000000000     0.321650000000     0.910750000000     0          
T        Si     0.390200000000     0.251350000000     0.791350000000     0          
T        Si     0.441600000000     0.172100000000     0.910400000000     0          
O        O      0.416666666667     0.944900000000     0.125000000000     0          
O        O      0.333333333333     0.930350000000     0.157450000000     0          
O        O      0.409133333333     0.878000000000     0.168400000000     0          
O        O      0.409966666667     0.959800000000     0.192100000000     0          
O        O      0.406400000000     0.545650000000     0.057900000000     0          
O        O      0.398566666667     0.500000000000     0.000000000000     0          
O        O      0.333333333333     0.989450000000     0.049650000000     0          
O        O      0.416666666667     0.560550000000     0.125000000000     0          
O        O      0.500000000000     0.577300000000     0.155400000000     0          
T        Si     0.392000000000     0.928350000000     0.160750000000     0          
T        Si     0.390200000000     0.998650000000     0.041350000000     0          
T        Si     0.441600000000     0.577900000000     0.160400000000     0          
O        O      0.416666666667     0.555100000000     0.375000000000     0          
O        O      0.500000000000     0.569650000000     0.407450000000     0          
O        O      0.424200000000     0.622000000000     0.418400000000     0          
O        O      0.423366666667     0.540200000000     0.442100000000     0          
O        O      0.426933333333     0.954350000000     0.307900000000     0          
O        O      0.434766666667     0.500000000000     0.250000000000     0          
O        O      0.500000000000     0.510550000000     0.299650000000     0          
O        O      0.416666666667     0.939450000000     0.375000000000     0          
O        O      0.333333333333     0.922700000000     0.405400000000     0          
T        Si     0.441333333333     0.571650000000     0.410750000000     0          
T        Si     0.443133333333     0.501350000000     0.291350000000     0          
T        Si     0.391733333333     0.922100000000     0.410400000000     0          
O        O      0.333333333333     0.569650000000     0.342550000000     0          
O        O      0.409133333333     0.622000000000     0.331600000000     0          
O        O      0.409966666667     0.540200000000     0.307900000000     0          
O        O      0.406400000000     0.954350000000     0.442100000000     0          
O        O      0.333333333333     0.510550000000     0.450350000000     0          
O        O      0.500000000000     0.922700000000     0.344600000000     0          
T        Si     0.392000000000     0.571650000000     0.339250000000     0          
T        Si     0.390200000000     0.501350000000     0.458650000000     0          
T        Si     0.441600000000     0.922100000000     0.339600000000     0          
O        O      0.500000000000     0.930350000000     0.092550000000     0          
O        O      0.424200000000     0.878000000000     0.081600000000     0          
O        O      0.423366666667     0.959800000000     0.057900000000     0          
O        O      0.426933333333     0.545650000000     0.192100000000     0          
O        O      0.500000000000     0.989450000000     0.200350000000     0          
O        O      0.333333333333     0.577300000000     0.094600000000     0          
T        Si     0.441333333333     0.928350000000     0.089250000000     0          
T        Si     0.443133333333     0.998650000000     0.208650000000     0          
T        Si     0.391733333333     0.577900000000     0.089600000000     0          
O        O      0.583333333333     0.555100000000     0.375000000000     0          
O        O      0.590866666667     0.622000000000     0.331600000000     0          
O        O      0.590033333333     0.540200000000     0.307900000000     0          
O        O      0.593600000000     0.954350000000     0.442100000000     0          
O        O      0.601433333333     0.500000000000     0.000000000000     0          
O        O      0.583333333333     0.939450000000     0.375000000000     0          
T        Si     0.608000000000     0.571650000000     0.339250000000     0          
T        Si     0.609800000000     0.501350000000     0.458650000000     0          
T        Si     0.558400000000     0.922100000000     0.339600000000     0          
O        O      0.583333333333     0.944900000000     0.125000000000     0          
O        O      0.575800000000     0.878000000000     0.081600000000     0          
O        O      0.576633333333     0.959800000000     0.057900000000     0          
O        O      0.573066666667     0.545650000000     0.192100000000     0          
O        O      0.565233333333     0.500000000000     0.250000000000     0          
O        O      0.583333333333     0.560550000000     0.125000000000     0          
T        Si     0.558666666667     0.928350000000     0.089250000000     0          
T        Si     0.556866666667     0.998650000000     0.208650000000     0          
T        Si     0.608266666667     0.577900000000     0.089600000000     0          
O        O      0.590866666667     0.878000000000     0.168400000000     0          
O        O      0.590033333333     0.959800000000     0.192100000000     0          
O        O      0.593600000000     0.545650000000     0.057900000000     0          
T        Si     0.608000000000     0.928350000000     0.160750000000     0          
T        Si     0.609800000000     0.998650000000     0.041350000000     0          
T        Si     0.558400000000     0.577900000000     0.160400000000     0          
O        O      0.575800000000     0.622000000000     0.418400000000     0          
O        O      0.576633333333     0.540200000000     0.442100000000     0          
O        O      0.573066666667     0.954350000000     0.307900000000     0          
T        Si     0.558666666667     0.571650000000     0.410750000000     0          
T        Si     0.556866666667     0.501350000000     0.291350000000     0          
T        Si     0.608266666667     0.922100000000     0.410400000000     0          
O        O      0.583333333333     0.694900000000     0.125000000000     0          
O        O      0.500000000000     0.680350000000     0.157450000000     0          
O        O      0.575800000000     0.628000000000     0.168400000000     0          
O        O      0.576633333333     0.709800000000     0.192100000000     0          
O        O      0.573066666667     0.795650000000     0.057900000000     0          
O        O      0.565233333333     0.750000000000     0.000000000000     0          
O        O      0.500000000000     0.739450000000     0.049650000000     0          
O        O      0.583333333333     0.810550000000     0.125000000000     0          
O        O      0.333333333333     0.827300000000     0.155400000000     0          
T        Si     0.558666666667     0.678350000000     0.160750000000     0          
T        Si     0.556866666667     0.748650000000     0.041350000000     0          
T        Si     0.608266666667     0.827900000000     0.160400000000     0          
O        O      0.583333333333     0.805100000000     0.375000000000     0          
O        O      0.333333333333     0.819650000000     0.407450000000     0          
O        O      0.590866666667     0.872000000000     0.418400000000     0          
O        O      0.590033333333     0.790200000000     0.442100000000     0          
O        O      0.593600000000     0.704350000000     0.307900000000     0          
O        O      0.601433333333     0.750000000000     0.250000000000     0          
O        O      0.333333333333     0.760550000000     0.299650000000     0          
O        O      0.583333333333     0.689450000000     0.375000000000     0          
O        O      0.500000000000     0.672700000000     0.405400000000     0          
T        Si     0.608000000000     0.821650000000     0.410750000000     0          
T        Si     0.609800000000     0.751350000000     0.291350000000     0          
T        Si     0.558400000000     0.672100000000     0.410400000000     0          
O        O      0.500000000000     0.819650000000     0.342550000000     0          
O        O      0.575800000000     0.872000000000     0.331600000000     0          
O        O      0.576633333333     0.790200000000     0.307900000000     0          
O        O      0.573066666667     0.704350000000     0.442100000000     0          
O        O      0.500000000000     0.760550000000     0.450350000000     0          
O        O      0.333333333333     0.672700000000     0.344600000000     0          
T        Si     0.558666666667     0.821650000000     0.339250000000     0          
T        Si     0.556866666667     0.751350000000     0.458650000000     0          
T        Si     0.608266666667     0.672100000000     0.339600000000     0          
O        O      0.333333333333     0.680350000000     0.092550000000     0          
O        O      0.590866666667     0.628000000000     0.081600000000     0          
O        O      0.590033333333     0.709800000000     0.057900000000     0          
O        O      0.593600000000     0.795650000000     0.192100000000     0          
O        O      0.333333333333     0.739450000000     0.200350000000     0          
O        O      0.500000000000     0.827300000000     0.094600000000     0          
T        Si     0.608000000000     0.678350000000     0.089250000000     0          
T        Si     0.609800000000     0.748650000000     0.208650000000     0          
T        Si     0.558400000000     0.827900000000     0.089600000000     0          
O        O      0.416666666667     0.805100000000     0.375000000000     0          
O        O      0.424200000000     0.872000000000     0.331600000000     0          
O        O      0.423366666667     0.790200000000     0.307900000000     0          
O        O      0.426933333333     0.704350000000     0.442100000000     0          
O        O      0.434766666667     0.750000000000     0.000000000000     0          
O        O      0.416666666667     0.689450000000     0.375000000000     0          
T        Si     0.441333333333     0.821650000000     0.339250000000     0          
T        Si     0.443133333333     0.751350000000     0.458650000000     0          
T        Si     0.391733333333     0.672100000000     0.339600000000     0          
O        O      0.416666666667     0.694900000000     0.125000000000     0          
O        O      0.409133333333     0.628000000000     0.081600000000     0          
O        O      0.409966666667     0.709800000000     0.057900000000     0          
O        O      0.406400000000     0.795650000000     0.192100000000     0          
O        O      0.398566666667     0.750000000000     0.250000000000     0          
O        O      0.416666666667     0.810550000000     0.125000000000     0          
T        Si     0.392000000000     0.678350000000     0.089250000000     0          
T        Si     0.390200000000     0.748650000000     0.208650000000     0          
T        Si     0.441600000000     0.827900000000     0.089600000000     0          
O        O      0.424200000000     0.628000000000     0.168400000000     0          
O        O      0.423366666667     0.709800000000     0.192100000000     0          
O        O      0.426933333333     0.795650000000     0.057900000000     0          
T        Si     0.441333333333     0.678350000000     0.160750000000     0          
T        Si     0.443133333333     0.748650000000     0.041350000000     0          
T        Si     0.391733333333     0.827900000000     0.160400000000     0          
O        O      0.409133333333     0.872000000000     0.418400000000     0          
O        O      0.409966666667     0.790200000000     0.442100000000     0          
O        O      0.406400000000     0.704350000000     0.307900000000     0          
T        Si     0.392000000000     0.821650000000     0.410750000000     0          
T        Si     0.390200000000     0.751350000000     0.291350000000     0          
T        Si     0.441600000000     0.672100000000     0.410400000000     0          
O        O      0.416666666667     0.944900000000     0.625000000000     0          
O        O      0.333333333333     0.930350000000     0.657450000000     0          
O        O      0.409133333333     0.878000000000     0.668400000000     0          
O        O      0.409966666667     0.959800000000     0.692100000000     0          
O        O      0.406400000000     0.545650000000     0.557900000000     0          
O        O      0.398566666667     0.500000000000     0.500000000000     0          
O        O      0.333333333333     0.989450000000     0.549650000000     0          
O        O      0.416666666667     0.560550000000     0.625000000000     0          
O        O      0.500000000000     0.577300000000     0.655400000000     0          
T        Si     0.392000000000     0.928350000000     0.660750000000     0          
T        Si     0.390200000000     0.998650000000     0.541350000000     0          
T        Si     0.441600000000     0.577900000000     0.660400000000     0          
O        O      0.416666666667     0.555100000000     0.875000000000     0          
O        O      0.500000000000     0.569650000000     0.907450000000     0          
O        O      0.424200000000     0.622000000000     0.918400000000     0          
O        O      0.423366666667     0.540200000000     0.942100000000     0          
O        O      0.426933333333     0.954350000000     0.807900000000     0          
O        O      0.434766666667     0.500000000000     0.750000000000     0          
O        O      0.500000000000     0.510550000000     0.799650000000     0          
O        O      0.416666666667     0.939450000000     0.875000000000     0          
O        O      0.333333333333     0.922700000000     0.905400000000     0          
T        Si     0.441333333333     0.571650000000     0.910750000000     0          
T        Si     0.443133333333     0.501350000000     0.791350000000     0          
T        Si     0.391733333333     0.922100000000     0.910400000000     0          
O        O      0.333333333333     0.569650000000     0.842550000000     0          
O        O      0.409133333333     0.622000000000     0.831600000000     0          
O        O      0.409966666667     0.540200000000     0.807900000000     0          
O        O      0.406400000000     0.954350000000     0.942100000000     0          
O        O      0.333333333333     0.510550000000     0.950350000000     0          
O        O      0.500000000000     0.922700000000     0.844600000000     0          
T        Si     0.392000000000     0.571650000000     0.839250000000     0          
T        Si     0.390200000000     0.501350000000     0.958650000000     0          
T        Si     0.441600000000     0.922100000000     0.839600000000     0          
O        O      0.500000000000     0.930350000000     0.592550000000     0          
O        O      0.424200000000     0.878000000000     0.581600000000     0          
O        O      0.423366666667     0.959800000000     0.557900000000     0          
O        O      0.426933333333     0.545650000000     0.692100000000     0          
O        O      0.500000000000     0.989450000000     0.700350000000     0          
O        O      0.333333333333     0.577300000000     0.594600000000     0          
T        Si     0.441333333333     0.928350000000     0.589250000000     0          
T        Si     0.443133333333     0.998650000000     0.708650000000     0          
T        Si     0.391733333333     0.577900000000     0.589600000000     0          
O        O      0.583333333333     0.555100000000     0.875000000000     0          
O        O      0.590866666667     0.622000000000     0.831600000000     0          
O        O      0.590033333333     0.540200000000     0.807900000000     0          
O        O      0.593600000000     0.954350000000     0.942100000000     0          
O        O      0.601433333333     0.500000000000     0.500000000000     0          
O        O      0.583333333333     0.939450000000     0.875000000000     0          
T        Si     0.608000000000     0.571650000000     0.839250000000     0          
T        Si     0.609800000000     0.501350000000     0.958650000000     0          
T        Si     0.558400000000     0.922100000000     0.839600000000     0          
O        O      0.583333333333     0.944900000000     0.625000000000     0          
O        O      0.575800000000     0.878000000000     0.581600000000     0          
O        O      0.576633333333     0.959800000000     0.557900000000     0          
O        O      0.573066666667     0.545650000000     0.692100000000     0          
O        O      0.565233333333     0.500000000000     0.750000000000     0          
O        O      0.583333333333     0.560550000000     0.625000000000     0          
T        Si     0.558666666667     0.928350000000     0.589250000000     0          
T        Si     0.556866666667     0.998650000000     0.708650000000     0          
T        Si     0.608266666667     0.577900000000     0.589600000000     0          
O        O      0.590866666667     0.878000000000     0.668400000000     0          
O        O      0.590033333333     0.959800000000     0.692100000000     0          
O        O      0.593600000000     0.545650000000     0.557900000000     0          
T        Si     0.608000000000     0.928350000000     0.660750000000     0          
T        Si     0.609800000000     0.998650000000     0.541350000000     0          
T        Si     0.558400000000     0.577900000000     0.660400000000     0          
O        O      0.575800000000     0.622000000000     0.918400000000     0          
O        O      0.576633333333     0.540200000000     0.942100000000     0          
O        O      0.573066666667     0.954350000000     0.807900000000     0          
T        Si     0.558666666667     0.571650000000     0.910750000000     0          
T        Si     0.556866666667     0.501350000000     0.791350000000     0          
T        Si     0.608266666667     0.922100000000     0.910400000000     0          
O        O      0.583333333333     0.694900000000     0.625000000000     0          
O        O      0.500000000000     0.680350000000     0.657450000000     0          
O        O      0.575800000000     0.628000000000     0.668400000000     0          
O        O      0.576633333333     0.709800000000     0.692100000000     0          
O        O      0.573066666667     0.795650000000     0.557900000000     0          
O        O      0.565233333333     0.750000000000     0.500000000000     0          
O        O      0.500000000000     0.739450000000     0.549650000000     0          
O        O      0.583333333333     0.810550000000     0.625000000000     0          
O        O      0.333333333333     0.827300000000     0.655400000000     0          
T        Si     0.558666666667     0.678350000000     0.660750000000     0          
T        Si     0.556866666667     0.748650000000     0.541350000000     0          
T        Si     0.608266666667     0.827900000000     0.660400000000     0          
O        O      0.583333333333     0.805100000000     0.875000000000     0          
O        O      0.333333333333     0.819650000000     0.907450000000     0          
O        O      0.590866666667     0.872000000000     0.918400000000     0          
O        O      0.590033333333     0.790200000000     0.942100000000     0          
O        O      0.593600000000     0.704350000000     0.807900000000     0          
O        O      0.601433333333     0.750000000000     0.750000000000     0          
O        O      0.333333333333     0.760550000000     0.799650000000     0          
O        O      0.583333333333     0.689450000000     0.875000000000     0          
O        O      0.500000000000     0.672700000000     0.905400000000     0          
T        Si     0.608000000000     0.821650000000     0.910750000000     0          
T        Si     0.609800000000     0.751350000000     0.791350000000     0          
T        Si     0.558400000000     0.672100000000     0.910400000000     0          
O        O      0.500000000000     0.819650000000     0.842550000000     0          
O        O      0.575800000000     0.872000000000     0.831600000000     0          
O        O      0.576633333333     0.790200000000     0.807900000000     0          
O        O      0.573066666667     0.704350000000     0.942100000000     0          
O        O      0.500000000000     0.760550000000     0.950350000000     0          
O        O      0.333333333333     0.672700000000     0.844600000000     0          
T        Si     0.558666666667     0.821650000000     0.839250000000     0          
T        Si     0.556866666667     0.751350000000     0.958650000000     0          
T        Si     0.608266666667     0.672100000000     0.839600000000     0          
O        O      0.333333333333     0.680350000000     0.592550000000     0          
O        O      0.590866666667     0.628000000000     0.581600000000     0          
O        O      0.590033333333     0.709800000000     0.557900000000     0          
O        O      0.593600000000     0.795650000000     0.692100000000     0          
O        O      0.333333333333     0.739450000000     0.700350000000     0          
O        O      0.500000000000     0.827300000000     0.594600000000     0          
T        Si     0.608000000000     0.678350000000     0.589250000000     0          
T        Si     0.609800000000     0.748650000000     0.708650000000     0          
T        Si     0.558400000000     0.827900000000     0.589600000000     0          
O        O      0.416666666667     0.805100000000     0.875000000000     0          
O        O      0.424200000000     0.872000000000     0.831600000000     0          
O        O      0.423366666667     0.790200000000     0.807900000000     0          
O        O      0.426933333333     0.704350000000     0.942100000000     0          
O        O      0.434766666667     0.750000000000     0.500000000000     0          
O        O      0.416666666667     0.689450000000     0.875000000000     0          
T        Si     0.441333333333     0.821650000000     0.839250000000     0          
T        Si     0.443133333333     0.751350000000     0.958650000000     0          
T        Si     0.391733333333     0.672100000000     0.839600000000     0          
O        O      0.416666666667     0.694900000000     0.625000000000     0          
O        O      0.409133333333     0.628000000000     0.581600000000     0          
O        O      0.409966666667     0.709800000000     0.557900000000     0          
O        O      0.406400000000     0.795650000000     0.692100000000     0          
O        O      0.398566666667     0.750000000000     0.750000000000     0          
O        O      0.416666666667     0.810550000000     0.625000000000     0          
T        Si     0.392000000000     0.678350000000     0.589250000000     0          
T        Si     0.390200000000     0.748650000000     0.708650000000     0          
T        Si     0.441600000000     0.827900000000     0.589600000000     0          
O        O      0.424200000000     0.628000000000     0.668400000000     0          
O        O      0.423366666667     0.709800000000     0.692100000000     0          
O        O      0.426933333333     0.795650000000     0.557900000000     0          
T        Si     0.441333333333     0.678350000000     0.660750000000     0          
T        Si     0.443133333333     0.748650000000     0.541350000000     0          
T        Si     0.391733333333     0.827900000000     0.660400000000     0          
O        O      0.409133333333     0.872000000000     0.918400000000     0          
O        O      0.409966666667     0.790200000000     0.942100000000     0          
O        O      0.406400000000     0.704350000000     0.807900000000     0          
T        Si     0.392000000000     0.821650000000     0.910750000000     0          
T        Si     0.390200000000     0.751350000000     0.791350000000     0          
T        Si     0.441600000000     0.672100000000     0.910400000000     0          
O        O      0.750000000000     0.444900000000     0.125000000000     0          
O        O      0.666666666667     0.430350000000     0.157450000000     0          
O        O      0.742466666667     0.378000000000     0.168400000000     0          
O        O      0.743300000000     0.459800000000     0.192100000000     0          
O        O      0.739733333333     0.045650000000     0.057900000000     0          
O        O      0.731900000000     0.000000000000     0.000000000000     0          
O        O      0.666666666667     0.489450000000     0.049650000000     0          
O        O      0.750000000000     0.060550000000     0.125000000000     0          
O        O      0.833333333333     0.077300000000     0.155400000000     0          
T        Si     0.725333333333     0.428350000000     0.160750000000     0          
T        Si     0.723533333333     0.498650000000     0.041350000000     0          
T        Si     0.774933333333     0.077900000000     0.160400000000     0          
O        O      0.750000000000     0.055100000000     0.375000000000     0          
O        O      0.833333333333     0.069650000000     0.407450000000     0          
O        O      0.757533333333     0.122000000000     0.418400000000     0          
O        O      0.756700000000     0.040200000000     0.442100000000     0          
O        O      0.760266666667     0.454350000000     0.307900000000     0          
O        O      0.768100000000     0.000000000000     0.250000000000     0          
O        O      0.833333333333     0.010550000000     0.299650000000     0          
O        O      0.750000000000     0.439450000000     0.375000000000     0          
O        O      0.666666666667     0.422700000000     0.405400000000     0          
T        Si     0.774666666667     0.071650000000     0.410750000000     0          
T        Si     0.776466666667     0.001350000000     0.291350000000     0          
T        Si     0.725066666667     0.422100000000     0.410400000000     0          
O        O      0.666666666667     0.069650000000     0.342550000000     0          
O        O      0.742466666667     0.122000000000     0.331600000000     0          
O        O      0.743300000000     0.040200000000     0.307900000000     0          
O        O      0.739733333333     0.454350000000     0.442100000000     0          
O        O      0.666666666667     0.010550000000     0.450350000000     0          
O        O      0.833333333333     0.422700000000     0.344600000000     0          
T        Si     0.725333333333     0.071650000000     0.339250000000     0          
T        Si     0.723533333333     0.001350000000     0.458650000000     0          
T        Si     0.774933333333     0.422100000000     0.339600000000     0          
O        O      0.833333333333     0.430350000000     0.092550000000     0          
O        O      0.757533333333     0.378000000000     0.081600000000     0          
O        O      0.756700000000     0.459800000000     0.057900000000     0          
O        O      0.760266666667     0.045650000000     0.192100000000     0          
O        O      0.833333333333     0.489450000000     0.200350000000     0          
O        O      0.666666666667     0.077300000000     0.094600000000     0          
T        Si     0.774666666667     0.428350000000     0.089250000000     0          
T        Si     0.776466666667     0.498650000000     0.208650000000     0          
T        Si     0.725066666667     0.077900000000     0.089600000000     0          
O        O      0.916666666667     0.055100000000     0.375000000000     0          
O        O      0.924200000000     0.122000000000     0.331600000000     0          
O        O      0.923366666667     0.040200000000     0.307900000000     0          
O        O      0.926933333333     0.454350000000     0.442100000000     0          
O        O      0.934766666667     0.000000000000     0.000000000000     0          
O        O      0.916666666667     0.439450000000     0.375000000000     0          
T        Si     0.941333333333     0.071650000000     0.339250000000     0          
T        Si     0.943133333333     0.001350000000     0.458650000000     0          
T        Si     0.891733333333     0.422100000000     0.339600000000     0          
O        O      0.916666666667     0.444900000000     0.125000000000     0          
O        O      0.909133333333     0.378000000000     0.081600000000     0          
O        O      0.909966666667     0.459800000000     0.057900000000     0          
O        O      0.906400000000     0.045650000000     0.192100000000     0          
O        O      0.898566666667     0.000000000000     0.250000000000     0          
O        O      0.916666666667     0.060550000000     0.125000000000     0          
T        Si     0.892000000000     0.428350000000     0.089250000000     0          
T        Si     0.890200000000     0.498650000000     0.208650000000     0          
T        Si     0.941600000000     0.077900000000     0.089600000000     0          
O        O      0.924200000000     0.378000000000     0.168400000000     0          
O        O      0.923366666667     0.459800000000     0.192100000000     0          
O        O      0.926933333333     0.045650000000     0.057900000000     0          
T        Si     0.941333333333     0.428350000000     0.160750000000     0          
T        Si     0.943133333333     0.498650000000     0.041350000000     0          
T        Si     0.891733333333     0.077900000000     0.160400000000     0          
O        O      0.909133333333     0.122000000000     0.418400000000     0          
O        O      0.909966666667     0.040200000000     0.442100000000     0          
O        O      0.906400000000     0.454350000000     0.307900000000     0          
T        Si     0.892000000000     0.071650000000     0.410750000000     0          
T        Si     0.890200000000     0.001350000000     0.291350000000     0          
T        Si     0.941600000000     0.422100000000     0.410400000000     0          
O        O      0.916666666667     0.194900000000     0.125000000000     0          
O        O      0.833333333333     0.180350000000     0.157450000000     0          
O        O      0.909133333333     0.128000000000     0.168400000000     0          
O        O      0.909966666667     0.209800000000     0.192100000000     0          
O        O      0.906400000000     0.295650000000     0.057900000000     0          
O        O      0.898566666667     0.250000000000     0.000000000000     0          
O        O      0.833333333333     0.239450000000     0.049650000000     0          
O        O      0.916666666667     0.310550000000     0.125000000000     0          
O        O      0.666666666667     0.327300000000     0.155400000000     0          
T        Si     0.892000000000     0.178350000000     0.160750000000     0          
T        Si     0.890200000000     0.248650000000     0.041350000000     0          
T        Si     0.941600000000     0.327900000000     0.160400000000     0          
O        O      0.916666666667     0.305100000000     0.375000000000     0          
O        O      0.666666666667     0.319650000000     0.407450000000     0          
O        O      0.924200000000     0.372000000000     0.418400000000     0          
O        O      0.923366666667     0.290200000000     0.442100000000     0          
O        O      0.926933333333     0.204350000000     0.307900000000     0          
O        O      0.934766666667     0.250000000000     0.250000000000     0          
O        O      0.666666666667     0.260550000000     0.299650000000     0          
O        O      0.916666666667     0.189450000000     0.375000000000     0          
O        O      0.833333333333     0.172700000000     0.405400000000     0          
T        Si     0.941333333333     0.321650000000     0.410750000000     0          
T        Si     0.943133333333     0.251350000000     0.291350000000     0          
T        Si     0.891733333333     0.172100000000     0.410400000000     0          
O        O      0.833333333333     0.319650000000     0.342550000000     0          
O        O      0.909133333333     0.372000000000     0.331600000000     0          
O        O      0.909966666667     0.290200000000     0.307900000000     0          
O        O      0.906400000000     0.204350000000     0.442100000000     0          
O        O      0.833333333333     0.260550000000     0.450350000000     0          
O        O      0.666666666667     0.172700000000     0.344600000000     0          
T        Si     0.892000000000     0.321650000000     0.339250000000     0          
T        Si     0.890200000000     0.251350000000     0.458650000000     0          
T        Si     0.941600000000     0.172100000000     0.339600000000     0          
O        O      0.666666666667     0.180350000000     0.092550000000     0          
O        O      0.924200000000     0.128000000000     0.081600000000     0          
O        O      0.923366666667     0.209800000000     0.057900000000     0          
O        O      0.926933333333     0.295650000000     0.192100000000     0          
O        O      0.666666666667     0.239450000000     0.200350000000     0          
O        O      0.833333333333     0.327300000000     0.094600000000     0          
T        Si     0.941333333333     0.178350000000     0.089250000000     0          
T        Si     0.943133333333     0.248650000000     0.208650000000     0          
T        Si     0.891733333333     0.327900000000     0.089600000000     0          
O        O      0.750000000000     0.305100000000     0.375000000000     0          
O        O      0.757533333333     0.372000000000     0.331600000000     0          
O        O      0.756700000000     0.290200000000     0.307900000000     0          
O        O      0.760266666667     0.204350000000     0.442100000000     0          
O        O      0.768100000000     0.250000000000     0.000000000000     0          
O        O      0.750000000000     0.189450000000     0.375000000000     0          
T        Si     0.774666666667     0.321650000000     0.339250000000     0          
T        Si     0.776466666667     0.251350000000     0.458650000000     0          
T        Si     0.725066666667     0.172100000000     0.339600000000     0          
O        O      0.750000000000     0.194900000000     0.125000000000     0          
O        O      0.742466666667     0.128000000000     0.081600000000     0          
O        O      0.743300000000     0.209800000000     0.057900000000     0          
O        O      0.739733333333     0.295650000000     0.192100000000     0          
O        O      0.731900000000     0.250000000000     0.250000000000     0          
O        O      0.750000000000     0.310550000000     0.125000000000     0          
T        Si     0.725333333333     0.178350000000     0.089250000000     0          
T        Si     0.723533333333     0.248650000000     0.208650000000     0          
T        Si     0.774933333333     0.327900000000     0.089600000000     0          
O        O      0.757533333333     0.128000000000     0.168400000000     0          
O        O      0.756700000000     0.209800000000     0.192100000000     0          
O        O      0.760266666667     0.295650000000     0.057900000000     0          
T        Si     0.774666666667     0.178350000000     0.160750000000     0          
T        Si     0.776466666667     0.248650000000     0.041350000000     0          
T        Si     0.725066666667     0.327900000000     0.160400000000     0          
O        O      0.742466666667     0.372000000000     0.418400000000     0          
O        O      0.743300000000     0.290200000000     0.442100000000     0          
O        O      0.739733333333     0.204350000000     0.307900000000     0          
T        Si     0.725333333333     0.321650000000     0.410750000000     0          
T        Si     0.723533333333     0.251350000000     0.291350000000     0          
T        Si     0.774933333333     0.172100000000     0.410400000000     0          
O        O      0.750000000000     0.444900000000     0.625000000000     0          
O        O      0.666666666667     0.430350000000     0.657450000000     0          
O        O      0.742466666667     0.378000000000     0.668400000000     0          
O        O      0.743300000000     0.459800000000     0.692100000000     0          
O        O      0.739733333333     0.045650000000     0.557900000000     0          
O        O      0.731900000000     0.000000000000     0.500000000000     0          
O        O      0.666666666667     0.489450000000     0.549650000000     0          
O        O      0.750000000000     0.060550000000     0.625000000000     0          
O        O      0.833333333333     0.077300000000     0.655400000000     0          
T        Si     0.725333333333     0.428350000000     0.660750000000     0          
T        Si     0.723533333333     0.498650000000     0.541350000000     0          
T        Si     0.774933333333     0.077900000000     0.660400000000     0          
O        O      0.750000000000     0.055100000000     0.875000000000     0          
O        O      0.833333333333     0.069650000000     0.907450000000     0          
O        O      0.757533333333     0.122000000000     0.918400000000     0          
O        O      0.756700000000     0.040200000000     0.942100000000     0          
O        O      0.760266666667     0.454350000000     0.807900000000     0          
O        O      0.768100000000     0.000000000000     0.750000000000     0          
O        O      0.833333333333     0.010550000000     0.799650000000     0          
O        O      0.750000000000     0.439450000000     0.875000000000     0          
O        O      0.666666666667     0.422700000000     0.905400000000     0          
T        Si     0.774666666667     0.071650000000     0.910750000000     0          
T        Si     0.776466666667     0.001350000000     0.791350000000     0          
T        Si     0.725066666667     0.422100000000     0.910400000000     0          
O        O      0.666666666667     0.069650000000     0.842550000000     0          
O        O      0.742466666667     0.122000000000     0.831600000000     0          
O        O      0.743300000000     0.040200000000     0.807900000000     0          
O        O      0.739733333333     0.454350000000     0.942100000000     0          
O        O      0.666666666667     0.010550000000     0.950350000000     0          
O        O      0.833333333333     0.422700000000     0.844600000000     0          
T        Si     0.725333333333     0.071650000000     0.839250000000     0          
T        Si     0.723533333333     0.001350000000     0.958650000000     0          
T        Si     0.774933333333     0.422100000000     0.839600000000     0          
O        O      0.833333333333     0.430350000000     0.592550000000     0          
O        O      0.757533333333     0.378000000000     0.581600000000     0          
O        O      0.756700000000     0.459800000000     0.557900000000     0          
O        O      0.760266666667     0.045650000000     0.692100000000     0          
O        O      0.833333333333     0.489450000000     0.700350000000     0          
O        O      0.666666666667     0.077300000000     0.594600000000     0          
T        Si     0.774666666667     0.428350000000     0.589250000000     0          
T        Si     0.776466666667     0.498650000000     0.708650000000     0          
T        Si     0.725066666667     0.077900000000     0.589600000000     0          
O        O      0.916666666667     0.055100000000     0.875000000000     0          
O        O      0.924200000000     0.122000000000     0.831600000000     0          
O        O      0.923366666667     0.040200000000     0.807900000000     0          
O        O      0.926933333333     0.454350000000     0.942100000000     0          
O        O      0.934766666667     0.000000000000     0.500000000000     0          
O        O      0.916666666667     0.439450000000     0.875000000000     0          
T        Si     0.941333333333     0.071650000000     0.839250000000     0          
T        Si     0.943133333333     0.001350000000     0.958650000000     0          
T        Si     0.891733333333     0.422100000000     0.839600000000     0          
O        O      0.916666666667     0.444900000000     0.625000000000     0          
O        O      0.909133333333     0.378000000000     0.581600000000     0          
O        O      0.909966666667     0.459800000000     0.557900000000     0          
O        O      0.906400000000     0.045650000000     0.692100000000     0          
O        O      0.898566666667     0.000000000000     0.750000000000     0          
O        O      0.916666666667     0.060550000000     0.625000000000     0          
T        Si     0.892000000000     0.428350000000     0.589250000000     0          
T        Si     0.890200000000     0.498650000000     0.708650000000     0          
T        Si     0.941600000000     0.077900000000     0.589600000000     0          
O        O      0.924200000000     0.378000000000     0.668400000000     0          
O        O      0.923366666667     0.459800000000     0.692100000000     0          
O        O      0.926933333333     0.045650000000     0.557900000000     0          
T        Si     0.941333333333     0.428350000000     0.660750000000     0          
T        Si     0.943133333333     0.498650000000     0.541350000000     0          
T        Si     0.891733333333     0.077900000000     0.660400000000     0          
O        O      0.909133333333     0.122000000000     0.918400000000     0          
O        O      0.909966666667     0.040200000000     0.942100000000     0          
O        O      0.906400000000     0.454350000000     0.807900000000     0          
T        Si     0.892000000000     0.071650000000     0.910750000000     0          
T        Si     0.890200000000     0.001350000000     0.791350000000     0          
T        Si     0.941600000000     0.422100000000     0.910400000000     0          
O        O      0.916666666667     0.194900000000     0.625000000000     0          
O        O      0.833333333333     0.180350000000     0.657450000000     0          
O        O      0.909133333333     0.128000000000     0.668400000000     0          
O        O      0.909966666667     0.209800000000     0.692100000000     0          
O        O      0.906400000000     0.295650000000     0.557900000000     0          
O        O      0.898566666667     0.250000000000     0.500000000000     0          
O        O      0.833333333333     0.239450000000     0.549650000000     0          
O        O      0.916666666667     0.310550000000     0.625000000000     0          
O        O      0.666666666667     0.327300000000     0.655400000000     0          
T        Si     0.892000000000     0.178350000000     0.660750000000     0          
T        Si     0.890200000000     0.248650000000     0.541350000000     0          
T        Si     0.941600000000     0.327900000000     0.660400000000     0          
O        O      0.916666666667     0.305100000000     0.875000000000     0          
O        O      0.666666666667     0.319650000000     0.907450000000     0          
O        O      0.924200000000     0.372000000000     0.918400000000     0          
O        O      0.923366666667     0.290200000000     0.942100000000     0          
O        O      0.926933333333     0.204350000000     0.807900000000     0          
O        O      0.934766666667     0.250000000000     0.750000000000     0          
O        O      0.666666666667     0.260550000000     0.799650000000     0          
O        O      0.916666666667     0.189450000000     0.875000000000     0          
O        O      0.833333333333     0.172700000000     0.905400000000     0          
T        Si     0.941333333333     0.321650000000     0.910750000000     0          
T        Si     0.943133333333     0.251350000000     0.791350000000     0          
T        Si     0.891733333333     0.172100000000     0.910400000000     0          
O        O      0.833333333333     0.319650000000     0.842550000000     0          
O        O      0.909133333333     0.372000000000     0.831600000000     0          
O        O      0.909966666667     0.290200000000     0.807900000000     0          
O        O      0.906400000000     0.204350000000     0.942100000000     0          
O        O      0.833333333333     0.260550000000     0.950350000000     0          
O        O      0.666666666667     0.172700000000     0.844600000000     0          
T        Si     0.892000000000     0.321650000000     0.839250000000     0          
T        Si     0.890200000000     0.251350000000     0.958650000000     0          
T        Si     0.941600000000     0.172100000000     0.839600000000     0          
O        O      0.666666666667     0.180350000000     0.592550000000     0          
O        O      0.924200000000     0.128000000000     0.581600000000     0          
O        O      0.923366666667     0.209800000000     0.557900000000     0          
O        O      0.926933333333     0.295650000000     0.692100000000     0          
O        O      0.666666666667     0.239450000000     0.700350000000     0          
O        O      0.833333333333     0.327300000000     0.594600000000     0          
T        Si     0.941333333333     0.178350000000     0.589250000000     0          
T        Si     0.943133333333     0.248650000000     0.708650000000     0          
T        Si     0.891733333333     0.327900000000     0.589600000000     0          
O        O      0.750000000000     0.305100000000     0.875000000000     0          
O        O      0.757533333333     0.372000000000     0.831600000000     0          
O        O      0.756700000000     0.290200000000     0.807900000000     0          
O        O      0.760266666667     0.204350000000     0.942100000000     0          
O        O      0.768100000000     0.250000000000     0.500000000000     0          
O        O      0.750000000000     0.189450000000     0.875000000000     0          
T        Si     0.774666666667     0.321650000000     0.839250000000     0          
T        Si     0.776466666667     0.251350000000     0.958650000000     0          
T        Si     0.725066666667     0.172100000000     0.839600000000     0          
O        O      0.750000000000     0.194900000000     0.625000000000     0          
O        O      0.742466666667     0.128000000000     0.581600000000     0          
O        O      0.743300000000     0.209800000000     0.557900000000     0          
O        O      0.739733333333     0.295650000000     0.692100000000     0          
O        O      0.731900000000     0.250000000000     0.750000000000     0          
O        O      0.750000000000     0.310550000000     0.625000000000     0          
T        Si     0.725333333333     0.178350000000     0.589250000000     0          
T        Si     0.723533333333     0.248650000000     0.708650000000     0          
T        Si     0.774933333333     0.327900000000     0.589600000000     0          
O        O      0.757533333333     0.128000000000     0.668400000000     0          
O        O      0.756700000000     0.209800000000     0.692100000000     0          
O        O      0.760266666667     0.295650000000     0.557900000000     0          
T        Si     0.774666666667     0.178350000000     0.660750000000     0          
T        Si     0.776466666667     0.248650000000     0.541350000000     0          
T        Si     0.725066666667     0.327900000000     0.660400000000     0          
O        O      0.742466666667     0.372000000000     0.918400000000     0          
O        O      0.743300000000     0.290200000000     0.942100000000     0          
O        O      0.739733333333     0.204350000000     0.807900000000     0          
T        Si     0.725333333333     0.321650000000     0.910750000000     0          
T        Si     0.723533333333     0.251350000000     0.791350000000     0          
T        Si     0.774933333333     0.172100000000     0.910400000000     0          
O        O      0.750000000000     0.944900000000     0.125000000000     0          
O        O      0.666666666667     0.930350000000     0.157450000000     0          
O        O      0.742466666667     0.878000000000     0.168400000000     0          
O        O      0.743300000000     0.959800000000     0.192100000000     0          
O        O      0.739733333333     0.545650000000     0.057900000000     0          
O        O      0.731900000000     0.500000000000     0.000000000000     0          
O        O      0.666666666667     0.989450000000     0.049650000000     0          
O        O      0.750000000000     0.560550000000     0.125000000000     0          
O        O      0.833333333333     0.577300000000     0.155400000000     0          
T        Si     0.725333333333     0.928350000000     0.160750000000     0          
T        Si     0.723533333333     0.998650000000     0.041350000000     0          
T        Si     0.774933333333     0.577900000000     0.160400000000     0          
O        O      0.750000000000     0.555100000000     0.375000000000     0          
O        O      0.833333333333     0.569650000000     0.407450000000     0          
O        O      0.757533333333     0.622000000000     0.418400000000     0          
O        O      0.756700000000     0.540200000000     0.442100000000     0          
O        O      0.760266666667     0.954350000000     0.307900000000     0          
O        O      0.768100000000     0.500000000000     0.250000000000     0          
O        O      0.833333333333     0.510550000000     0.299650000000     0          
O        O      0.750000000000     0.939450000000     0.375000000000     0          
O        O      0.666666666667     0.922700000000     0.405400000000     0          
T        Si     0.774666666667     0.571650000000     0.410750000000     0          
T        Si     0.776466666667     0.501350000000     0.291350000000     0          
T        Si     0.725066666667     0.922100000000     0.410400000000     0          
O        O      0.666666666667     0.569650000000     0.342550000000     0          
O        O      0.742466666667     0.622000000000     0.331600000000     0          
O        O      0.743300000000     0.540200000000     0.307900000000     0          
O        O      0.739733333333     0.954350000000     0.442100000000     0          
O        O      0.666666666667     0.510550000000     0.450350000000     0          
O        O      0.833333333333     0.922700000000     0.344600000000     0          
T        Si     0.725333333333     0.571650000000     0.339250000000     0          
T        Si     0.723533333333     0.501350000000     0.458650000000     0          
T        Si     0.774933333333     0.922100000000     0.339600000000     0          
O        O      0.833333333333     0.930350000000     0.092550000000     0          
O        O      0.757533333333     0.878000000000     0.081600000000     0          
O        O      0.756700000000     0.959800000000     0.057900000000     0          
O        O      0.760266666667     0.545650000000     0.192100000000     0          
O        O      0.833333333333     0.989450000000     0.200350000000     0          
O        O      0.666666666667     0.577300000000     0.094600000000     0          
T        Si     0.774666666667     0.928350000000     0.089250000000     0          
T        Si     0.776466666667     0.998650000000     0.208650000000     0          
T        Si     0.725066666667     0.577900000000     0.089600000000     0          
O        O      0.916666666667     0.555100000000     0.375000000000     0          
O        O      0.924200000000     0.622000000000     0.331600000000     0          
O        O      0.923366666667     0.540200000000     0.307900000000     0          
O        O      0.926933333333     0.954350000000     0.442100000000     0          
O        O      0.934766666667     0.500000000000     0.000000000000     0          
O        O      0.916666666667     0.939450000000     0.375000000000     0          
T        Si     0.941333333333     0.571650000000     0.339250000000     0          
T        Si     0.943133333333     0.501350000000     0.458650000000     0          
T        Si     0.891733333333     0.922100000000     0.339600000000     0          
O        O      0.916666666667     0.944900000000     0.125000000000     0          
O        O      0.909133333333     0.878000000000     0.081600000000     0          
O        O      0.909966666667     0.959800000000     0.057900000000     0          
O        O      0.906400000000     0.545650000000     0.192100000000     0          
O        O      0.898566666667     0.500000000000     0.250000000000     0          
O        O      0.916666666667     0.560550000000     0.125000000000     0          
T        Si     0.892000000000     0.928350000000     0.089250000000     0          
T        Si     0.890200000000     0.998650000000     0.208650000000     0          
T        Si     0.941600000000     0.577900000000     0.089600000000     0          
O        O      0.924200000000     0.878000000000     0.168400000000     0          
O        O      0.923366666667     0.959800000000     0.192100000000     0          
O        O      0.926933333333     0.545650000000     0.057900000000     0          
T        Si     0.941333333333     0.928350000000     0.160750000000     0          
T        Si     0.943133333333     0.998650000000     0.041350000000     0          
T        Si     0.891733333333     0.577900000000     0.160400000000     0          
O        O      0.909133333333     0.622000000000     0.418400000000     0          
O        O      0.909966666667     0.540200000000     0.442100000000     0          
O        O      0.906400000000     0.954350000000     0.307900000000     0          
T        Si     0.892000000000     0.571650000000     0.410750000000     0          
T        Si     0.890200000000     0.501350000000     0.291350000000     0          
T        Si     0.941600000000     0.922100000000     0.410400000000     0          
O        O      0.916666666667     0.694900000000     0.125000000000     0          
O        O      0.833333333333     0.680350000000     0.157450000000     0          
O        O      0.909133333333     0.628000000000     0.168400000000     0          
O        O      0.909966666667     0.709800000000     0.192100000000     0          
O        O      0.906400000000     0.795650000000     0.057900000000     0          
O        O      0.898566666667     0.750000000000     0.000000000000     0          
O        O      0.833333333333     0.739450000000     0.049650000000     0          
O        O      0.916666666667     0.810550000000     0.125000000000     0          
O        O      0.666666666667     0.827300000000     0.155400000000     0          
T        Si     0.892000000000     0.678350000000     0.160750000000     0          
T        Si     0.890200000000     0.748650000000     0.041350000000     0          
T        Si     0.941600000000     0.827900000000     0.160400000000     0          
O        O      0.916666666667     0.805100000000     0.375000000000     0          
O        O      0.666666666667     0.819650000000     0.407450000000     0          
O        O      0.924200000000     0.872000000000     0.418400000000     0          
O        O      0.923366666667     0.790200000000     0.442100000000     0          
O        O      0.926933333333     0.704350000000     0.307900000000     0          
O        O      0.934766666667     0.750000000000     0.250000000000     0          
O        O      0.666666666667     0.760550000000     0.299650000000     0          
O        O      0.916666666667     0.689450000000     0.375000000000     0          
O        O      0.833333333333     0.672700000000     0.405400000000     0          
T        Si     0.941333333333     0.821650000000     0.410750000000     0          
T        Si     0.943133333333     0.751350000000     0.291350000000     0          
T        Si     0.891733333333     0.672100000000     0.410400000000     0          
O        O      0.833333333333     0.819650000000     0.342550000000     0          
O        O      0.909133333333     0.872000000000     0.331600000000     0          
O        O      0.909966666667     0.790200000000     0.307900000000     0          
O        O      0.906400000000     0.704350000000     0.442100000000     0          
O        O      0.833333333333     0.760550000000     0.450350000000     0          
O        O      0.666666666667     0.672700000000     0.344600000000     0          
T        Si     0.892000000000     0.821650000000     0.339250000000     0          
T        Si     0.890200000000     0.751350000000     0.458650000000     0          
T        Si     0.941600000000     0.672100000000     0.339600000000     0          
O        O      0.666666666667     0.680350000000     0.092550000000     0          
O        O      0.924200000000     0.628000000000     0.081600000000     0          
O        O      0.923366666667     0.709800000000     0.057900000000     0          
O        O      0.926933333333     0.795650000000     0.192100000000     0          
O        O      0.666666666667     0.739450000000     0.200350000000     0          
O        O      0.833333333333     0.827300000000     0.094600000000     0          
T        Si     0.941333333333     0.678350000000     0.089250000000     0          
T        Si     0.943133333333     0.748650000000     0.208650000000     0          
T        Si     0.891733333333     0.827900000000     0.089600000000     0          
O        O      0.750000000000     0.805100000000     0.375000000000     0          
O        O      0.757533333333     0.872000000000     0.331600000000     0          
O        O      0.756700000000     0.790200000000     0.307900000000     0          
O        O      0.760266666667     0.704350000000     0.442100000000     0          
O        O      0.768100000000     0.750000000000     0.000000000000     0          
O        O      0.750000000000     0.689450000000     0.375000000000     0          
T        Si     0.774666666667     0.821650000000     0.339250000000     0          
T        Si     0.776466666667     0.751350000000     0.458650000000     0          
T        Si     0.725066666667     0.672100000000     0.339600000000     0          
O        O      0.750000000000     0.694900000000     0.125000000000     0          
O        O      0.742466666667     0.628000000000     0.081600000000     0          
O        O      0.743300000000     0.709800000000     0.057900000000     0          
O        O      0.739733333333     0.795650000000     0.192100000000     0          
O        O      0.731900000000     0.750000000000     0.250000000000     0          
O        O      0.750000000000     0.810550000000     0.125000000000     0          
T        Si     0.725333333333     0.678350000000     0.089250000000     0          
T        Si     0.723533333333     0.748650000000     0.208650000000     0          
T        Si     0.774933333333     0.827900000000     0.089600000000     0          
O        O      0.757533333333     0.628000000000     0.168400000000     0          
O        O      0.756700000000     0.709800000000     0.192100000000     0          
O        O      0.760266666667     0.795650000000     0.057900000000     0          
T        Si     0.774666666667     0.678350000000     0.160750000000     0          
T        Si     0.776466666667     0.748650000000     0.041350000000     0          
T        Si     0.725066666667     0.827900000000     0.160400000000     0          
O        O      0.742466666667     0.872000000000     0.418400000000     0          
O        O      0.743300000000     0.790200000000     0.442100000000     0          
O        O      0.739733333333     0.704350000000     0.307900000000     0          
T        Si     0.725333333333     0.821650000000     0.410750000000     0          
T        Si     0.723533333333     0.751350000000     0.291350000000     0          
T        Si     0.774933333333     0.672100000000     0.410400000000     0          
O        O      0.750000000000     0.944900000000     0.625000000000     0          
O        O      0.666666666667     0.930350000000     0.657450000000     0          
O        O      0.742466666667     0.878000000000     0.668400000000     0          
O        O      0.743300000000     0.959800000000     0.692100000000     0          
O        O      0.739733333333     0.545650000000     0.557900000000     0          
O        O      0.731900000000     0.500000000000     0.500000000000     0          
O        O      0.666666666667     0.989450000000     0.549650000000     0          
O        O      0.750000000000     0.560550000000     0.625000000000     0          
O        O      0.833333333333     0.577300000000     0.655400000000     0          
T        Si     0.725333333333     0.928350000000     0.660750000000     0          
T        Si     0.723533333333     0.998650000000     0.541350000000     0          
T        Si     0.774933333333     0.577900000000     0.660400000000     0          
O        O      0.750000000000     0.555100000000     0.875000000000     0          
O        O      0.833333333333     0.569650000000     0.907450000000     0          
O        O      0.757533333333     0.622000000000     0.918400000000     0          
O        O      0.756700000000     0.540200000000     0.942100000000     0          
O        O      0.760266666667     0.954350000000     0.807900000000     0          
O        O      0.768100000000     0.500000000000     0.750000000000     0          
O        O      0.833333333333     0.510550000000     0.799650000000     0          
O        O      0.750000000000     0.939450000000     0.875000000000     0          
O        O      0.666666666667     0.922700000000     0.905400000000     0          
T        Si     0.774666666667     0.571650000000     0.910750000000     0          
T        Si     0.776466666667     0.501350000000     0.791350000000     0          
T        Si     0.725066666667     0.922100000000     0.910400000000     0          
O        O      0.666666666667     0.569650000000     0.842550000000     0          
O        O      0.742466666667     0.622000000000     0.831600000000     0          
O        O      0.743300000000     0.540200000000     0.807900000000     0          
O        O      0.739733333333     0.954350000000     0.942100000000     0          
O        O      0.666666666667     0.510550000000     0.950350000000     0          
O        O      0.833333333333     0.922700000000     0.844600000000     0          
T        Si     0.725333333333     0.571650000000     0.839250000000     0          
T        Si     0.723533333333     0.501350000000     0.958650000000     0          
T        Si     0.774933333333     0.922100000000     0.839600000000     0          
O        O      0.833333333333     0.930350000000     0.592550000000     0          
O        O      0.757533333333     0.878000000000     0.581600000000     0          
O        O      0.756700000000     0.959800000000     0.557900000000     0          
O        O      0.760266666667     0.545650000000     0.692100000000     0          
O        O      0.833333333333     0.989450000000     0.700350000000     0          
O        O      0.666666666667     0.577300000000     0.594600000000     0          
T        Si     0.774666666667     0.928350000000     0.589250000000     0          
T        Si     0.776466666667     0.998650000000     0.708650000000     0          
T        Si     0.725066666667     0.577900000000     0.589600000000     0          
O        O      0.916666666667     0.555100000000     0.875000000000     0          
O        O      0.924200000000     0.622000000000     0.831600000000     0          
O        O      0.923366666667     0.540200000000     0.807900000000     0          
O        O      0.926933333333     0.954350000000     0.942100000000     0          
O        O      0.934766666667     0.500000000000     0.500000000000     0          
O        O      0.916666666667     0.939450000000     0.875000000000     0          
T        Si     0.941333333333     0.571650000000     0.839250000000     0          
T        Si     0.943133333333     0.501350000000     0.958650000000     0          
T        Si     0.891733333333     0.922100000000     0.839600000000     0          
O        O      0.916666666667     0.944900000000     0.625000000000     0          
O        O      0.909133333333     0.878000000000     0.581600000000     0          
O        O      0.909966666667     0.959800000000     0.557900000000     0          
O        O      0.906400000000     0.545650000000     0.692100000000     0          
O        O      0.898566666667     0.500000000000     0.750000000000     0          
O        O      0.916666666667     0.560550000000     0.625000000000     0          
T        Si     0.892000000000     0.928350000000     0.589250000000     0          
T        Si     0.890200000000     0.998650000000     0.708650000000     0          
T        Si     0.941600000000     0.577900000000     0.589600000000     0          
O        O      0.924200000000     0.878000000000     0.668400000000     0          
O        O      0.923366666667     0.959800000000     0.692100000000     0          
O        O      0.926933333333     0.545650000000     0.557900000000     0          
T        Si     0.941333333333     0.928350000000     0.660750000000     0          
T        Si     0.943133333333     0.998650000000     0.541350000000     0          
T        Si     0.891733333333     0.577900000000     0.660400000000     0          
O        O      0.909133333333     0.622000000000     0.918400000000     0          
O        O      0.909966666667     0.540200000000     0.942100000000     0          
O        O      0.906400000000     0.954350000000     0.807900000000     0          
T        Si     0.892000000000     0.571650000000     0.910750000000     0          
T        Si     0.890200000000     0.501350000000     0.791350000000     0          
T        Si     0.941600000000     0.922100000000     0.910400000000     0          
O        O      0.916666666667     0.694900000000     0.625000000000     0          
O        O      0.833333333333     0.680350000000     0.657450000000     0          
O        O      0.909133333333     0.628000000000     0.668400000000     0          
O        O      0.909966666667     0.709800000000     0.692100000000     0          
O        O      0.906400000000     0.795650000000     0.557900000000     0          
O        O      0.898566666667     0.750000000000     0.500000000000     0          
O        O      0.833333333333     0.739450000000     0.549650000000     0          
O        O      0.916666666667     0.810550000000     0.625000000000     0          
O        O      0.666666666667     0.827300000000     0.655400000000     0          
T        Si     0.892000000000     0.678350000000     0.660750000000     0          
T        Si     0.890200000000     0.748650000000     0.541350000000     0          
T        Si     0.941600000000     0.827900000000     0.660400000000     0          
O        O      0.916666666667     0.805100000000     0.875000000000     0          
O        O      0.666666666667     0.819650000000     0.907450000000     0          
O        O      0.924200000000     0.872000000000     0.918400000000     0          
O        O      0.923366666667     0.790200000000     0.942100000000     0          
O        O      0.926933333333     0.704350000000     0.807900000000     0          
O        O      0.934766666667     0.750000000000     0.750000000000     0          
O        O      0.666666666667     0.760550000000     0.799650000000     0          
O        O      0.916666666667     0.689450000000     0.875000000000     0          
O        O      0.833333333333     0.672700000000     0.905400000000     0          
T        Si     0.941333333333     0.821650000000     0.910750000000     0          
T        Si     0.943133333333     0.751350000000     0.791350000000     0          
T        Si     0.891733333333     0.672100000000     0.910400000000     0          
O        O      0.833333333333     0.819650000000     0.842550000000     0          
O        O      0.909133333333     0.872000000000     0.831600000000     0          
O        O      0.909966666667     0.790200000000     0.807900000000     0          
O        O      0.906400000000     0.704350000000     0.942100000000     0          
O        O      0.833333333333     0.760550000000     0.950350000000     0          
O        O      0.666666666667     0.672700000000     0.844600000000     0          
T        Si     0.892000000000     0.821650000000     0.839250000000     0          
T        Si     0.890200000000     0.751350000000     0.958650000000     0          
T        Si     0.941600000000     0.672100000000     0.839600000000     0          
O        O      0.666666666667     0.680350000000     0.592550000000     0          
O        O      0.924200000000     0.628000000000     0.581600000000     0          
O        O      0.923366666667     0.709800000000     0.557900000000     0          
O        O      0.926933333333     0.795650000000     0.692100000000     0          
O        O      0.666666666667     0.739450000000     0.700350000000     0          
O        O      0.833333333333     0.827300000000     0.594600000000     0          
T        Si     0.941333333333     0.678350000000     0.589250000000     0          
T        Si     0.943133333333     0.748650000000     0.708650000000     0          
T        Si     0.891733333333     0.827900000000     0.589600000000     0          
O        O      0.750000000000     0.805100000000     0.875000000000     0          
O        O      0.757533333333     0.872000000000     0.831600000000     0          
O        O      0.756700000000     0.790200000000     0.807900000000     0          
O        O      0.760266666667     0.704350000000     0.942100000000     0          
O        O      0.768100000000     0.750000000000     0.500000000000     0          
O        O      0.750000000000     0.689450000000     0.875000000000     0          
T        Si     0.774666666667     0.821650000000     0.839250000000     0          
T        Si     0.776466666667     0.751350000000     0.958650000000     0          
T        Si     0.725066666667     0.672100000000     0.839600000000     0          
O        O      0.750000000000     0.694900000000     0.625000000000     0          
O        O      0.742466666667     0.628000000000     0.581600000000     0          
O        O      0.743300000000     0.709800000000     0.557900000000     0          
O        O      0.739733333333     0.795650000000     0.692100000000     0          
O        O      0.731900000000     0.750000000000     0.750000000000     0          
O        O      0.750000000000     0.810550000000     0.625000000000     0          
T        Si     0.725333333333     0.678350000000     0.589250000000     0          
T        Si     0.723533333333     0.748650000000     0.708650000000     0          
T        Si     0.774933333333     0.827900000000     0.589600000000     0          
O        O      0.757533333333     0.628000000000     0.668400000000     0          
O        O      0.756700000000     0.709800000000     0.692100000000     0          
O        O      0.760266666667     0.795650000000     0.557900000000     0          
T        Si     0.774666666667     0.678350000000     0.660750000000     0          
T        Si     0.776466666667     0.748650000000     0.541350000000     0          
T        Si     0.725066666667     0.827900000000     0.660400000000     0          
O        O      0.742466666667     0.872000000000     0.918400000000     0          
O        O      0.743300000000     0.790200000000     0.942100000000     0          
O        O      0.739733333333     0.704350000000     0.807900000000     0          
T        Si     0.725333333333     0.821650000000     0.910750000000     0          
T        Si     0.723533333333     0.751350000000     0.791350000000     0          
T        Si     0.774933333333     0.672100000000     0.910400000000     0          


