data_zeolite

_audit_creation_method RASPA-1.0
_audit_creation_date 2021-6-7
_audit_author_name ''

_cell_length_a    28.62
_cell_length_b    41.826
_cell_length_c    28.632
_cell_angle_alpha 90
_cell_angle_beta  90.003
_cell_angle_gamma 90
_cell_volume      34274.2

_symmetry_cell_setting          monoclinic
_symmetry_space_group_name_Hall 'P 1'
_symmetry_space_group_name_H-M  'P 1'
_symmetry_Int_Tables_number     1

_symmetry_equiv_pos_as_xyz 'x,y,z'

loop_
_atom_site_label
_atom_site_type_symbol
_atom_site_fract_x
_atom_site_fract_y
_atom_site_fract_z
_atom_site_charge
O        O      0.204100000000     0.102700000000     0.000000000000     0          
O        O      0.170850000000     0.053200000000     0.046100000000     0          
O        O      0.000000000000     0.048600000000     0.000000000000     0          
O        O      0.170825000000     0.053200000000     0.203925000000     0          
O        O      0.125000000000     0.046300000000     0.125000000000     0          
O        O      0.125025000000     0.000000000000     0.062750000000     0          
O        O      0.000000000000     0.147300000000     0.045875000000     0          
O        O      0.203900000000     0.196800000000     0.079175000000     0          
O        O      0.000000000000     0.201400000000     0.000000000000     0          
O        O      0.046075000000     0.196800000000     0.079175000000     0          
O        O      0.125000000000     0.203800000000     0.125000000000     0          
O        O      0.062500000000     0.250000000000     0.125000000000     0          
T        Si     0.198575000000     0.064300000000     0.000000000000     0          
T        Si     0.125000000000     0.038100000000     0.070100000000     0          
T        Si     0.000000000000     0.185700000000     0.051425000000     0          
T        Si     0.070025000000     0.211900000000     0.125000000000     0          
T        Si     0.000000000000     0.125000000000     0.000000000000     0          
O        O      0.045900000000     0.102700000000     0.000000000000     0          
O        O      0.079150000000     0.053200000000     0.203900000000     0          
O        O      0.079175000000     0.053200000000     0.046075000000     0          
O        O      0.124975000000     0.000000000000     0.187250000000     0          
O        O      0.000000000000     0.147300000000     0.204125000000     0          
O        O      0.046100000000     0.196800000000     0.170825000000     0          
O        O      0.203925000000     0.196800000000     0.170825000000     0          
O        O      0.187500000000     0.250000000000     0.125000000000     0          
T        Si     0.051425000000     0.064300000000     0.000000000000     0          
T        Si     0.125000000000     0.038100000000     0.179900000000     0          
T        Si     0.000000000000     0.185700000000     0.198575000000     0          
T        Si     0.179975000000     0.211900000000     0.125000000000     0          
O        O      0.045900000000     0.897300000000     0.000000000000     0          
O        O      0.079150000000     0.946800000000     0.203900000000     0          
O        O      0.000000000000     0.951400000000     0.000000000000     0          
O        O      0.079175000000     0.946800000000     0.046075000000     0          
O        O      0.125000000000     0.953700000000     0.125000000000     0          
O        O      0.000000000000     0.852700000000     0.204125000000     0          
O        O      0.046100000000     0.803200000000     0.170825000000     0          
O        O      0.000000000000     0.798600000000     0.000000000000     0          
O        O      0.203925000000     0.803200000000     0.170825000000     0          
O        O      0.125000000000     0.796200000000     0.125000000000     0          
O        O      0.187500000000     0.750000000000     0.125000000000     0          
T        Si     0.051425000000     0.935700000000     0.000000000000     0          
T        Si     0.125000000000     0.961900000000     0.179900000000     0          
T        Si     0.000000000000     0.814300000000     0.198575000000     0          
T        Si     0.179975000000     0.788100000000     0.125000000000     0          
T        Si     0.000000000000     0.875000000000     0.000000000000     0          
O        O      0.204100000000     0.897300000000     0.000000000000     0          
O        O      0.170850000000     0.946800000000     0.046100000000     0          
O        O      0.170825000000     0.946800000000     0.203925000000     0          
O        O      0.000000000000     0.852700000000     0.045875000000     0          
O        O      0.203900000000     0.803200000000     0.079175000000     0          
O        O      0.046075000000     0.803200000000     0.079175000000     0          
O        O      0.062500000000     0.750000000000     0.125000000000     0          
T        Si     0.198575000000     0.935700000000     0.000000000000     0          
T        Si     0.125000000000     0.961900000000     0.070100000000     0          
T        Si     0.000000000000     0.814300000000     0.051425000000     0          
T        Si     0.070025000000     0.788100000000     0.125000000000     0          
O        O      0.079100000000     0.602700000000     0.000000000000     0          
O        O      0.045850000000     0.553200000000     0.046100000000     0          
O        O      0.125000000000     0.548600000000     0.000000000000     0          
O        O      0.045825000000     0.553200000000     0.203925000000     0          
O        O      0.000000000000     0.546300000000     0.125000000000     0          
O        O      0.000025000000     0.500000000000     0.062750000000     0          
O        O      0.125000000000     0.647300000000     0.045875000000     0          
O        O      0.078900000000     0.696800000000     0.079175000000     0          
O        O      0.125000000000     0.701400000000     0.000000000000     0          
O        O      0.171075000000     0.696800000000     0.079175000000     0          
O        O      0.000000000000     0.703800000000     0.125000000000     0          
T        Si     0.073575000000     0.564300000000     0.000000000000     0          
T        Si     0.000000000000     0.538100000000     0.070100000000     0          
T        Si     0.125000000000     0.685700000000     0.051425000000     0          
T        Si     0.195025000000     0.711900000000     0.125000000000     0          
T        Si     0.125000000000     0.625000000000     0.000000000000     0          
O        O      0.170900000000     0.602700000000     0.000000000000     0          
O        O      0.204150000000     0.553200000000     0.203900000000     0          
O        O      0.204175000000     0.553200000000     0.046075000000     0          
O        O      0.249975000000     0.500000000000     0.187250000000     0          
O        O      0.125000000000     0.647300000000     0.204125000000     0          
O        O      0.171100000000     0.696800000000     0.170825000000     0          
O        O      0.078925000000     0.696800000000     0.170825000000     0          
T        Si     0.176425000000     0.564300000000     0.000000000000     0          
T        Si     0.000000000000     0.538100000000     0.179900000000     0          
T        Si     0.125000000000     0.685700000000     0.198575000000     0          
T        Si     0.054975000000     0.711900000000     0.125000000000     0          
O        O      0.170900000000     0.397300000000     0.000000000000     0          
O        O      0.204150000000     0.446800000000     0.203900000000     0          
O        O      0.125000000000     0.451400000000     0.000000000000     0          
O        O      0.204175000000     0.446800000000     0.046075000000     0          
O        O      0.000000000000     0.453700000000     0.125000000000     0          
O        O      0.125000000000     0.352700000000     0.204125000000     0          
O        O      0.171100000000     0.303200000000     0.170825000000     0          
O        O      0.125000000000     0.298600000000     0.000000000000     0          
O        O      0.078925000000     0.303200000000     0.170825000000     0          
O        O      0.000000000000     0.296200000000     0.125000000000     0          
T        Si     0.176425000000     0.435700000000     0.000000000000     0          
T        Si     0.000000000000     0.461900000000     0.179900000000     0          
T        Si     0.125000000000     0.314300000000     0.198575000000     0          
T        Si     0.054975000000     0.288100000000     0.125000000000     0          
T        Si     0.125000000000     0.375000000000     0.000000000000     0          
O        O      0.079100000000     0.397300000000     0.000000000000     0          
O        O      0.045850000000     0.446800000000     0.046100000000     0          
O        O      0.045825000000     0.446800000000     0.203925000000     0          
O        O      0.125000000000     0.352700000000     0.045875000000     0          
O        O      0.078900000000     0.303200000000     0.079175000000     0          
O        O      0.171075000000     0.303200000000     0.079175000000     0          
T        Si     0.073575000000     0.435700000000     0.000000000000     0          
T        Si     0.000000000000     0.461900000000     0.070100000000     0          
T        Si     0.125000000000     0.314300000000     0.051425000000     0          
T        Si     0.195025000000     0.288100000000     0.125000000000     0          
O        O      0.204100000000     0.102700000000     0.250000000000     0          
O        O      0.170850000000     0.053200000000     0.296100000000     0          
O        O      0.000000000000     0.048600000000     0.250000000000     0          
O        O      0.170825000000     0.053200000000     0.453925000000     0          
O        O      0.125000000000     0.046300000000     0.375000000000     0          
O        O      0.125025000000     0.000000000000     0.312750000000     0          
O        O      0.000000000000     0.147300000000     0.295875000000     0          
O        O      0.203900000000     0.196800000000     0.329175000000     0          
O        O      0.000000000000     0.201400000000     0.250000000000     0          
O        O      0.046075000000     0.196800000000     0.329175000000     0          
O        O      0.125000000000     0.203800000000     0.375000000000     0          
O        O      0.062500000000     0.250000000000     0.375000000000     0          
T        Si     0.198575000000     0.064300000000     0.250000000000     0          
T        Si     0.125000000000     0.038100000000     0.320100000000     0          
T        Si     0.000000000000     0.185700000000     0.301425000000     0          
T        Si     0.070025000000     0.211900000000     0.375000000000     0          
T        Si     0.000000000000     0.125000000000     0.250000000000     0          
O        O      0.045900000000     0.102700000000     0.250000000000     0          
O        O      0.079150000000     0.053200000000     0.453900000000     0          
O        O      0.079175000000     0.053200000000     0.296075000000     0          
O        O      0.124975000000     0.000000000000     0.437250000000     0          
O        O      0.000000000000     0.147300000000     0.454125000000     0          
O        O      0.046100000000     0.196800000000     0.420825000000     0          
O        O      0.203925000000     0.196800000000     0.420825000000     0          
O        O      0.187500000000     0.250000000000     0.375000000000     0          
T        Si     0.051425000000     0.064300000000     0.250000000000     0          
T        Si     0.125000000000     0.038100000000     0.429900000000     0          
T        Si     0.000000000000     0.185700000000     0.448575000000     0          
T        Si     0.179975000000     0.211900000000     0.375000000000     0          
O        O      0.045900000000     0.897300000000     0.250000000000     0          
O        O      0.079150000000     0.946800000000     0.453900000000     0          
O        O      0.000000000000     0.951400000000     0.250000000000     0          
O        O      0.079175000000     0.946800000000     0.296075000000     0          
O        O      0.125000000000     0.953700000000     0.375000000000     0          
O        O      0.000000000000     0.852700000000     0.454125000000     0          
O        O      0.046100000000     0.803200000000     0.420825000000     0          
O        O      0.000000000000     0.798600000000     0.250000000000     0          
O        O      0.203925000000     0.803200000000     0.420825000000     0          
O        O      0.125000000000     0.796200000000     0.375000000000     0          
O        O      0.187500000000     0.750000000000     0.375000000000     0          
T        Si     0.051425000000     0.935700000000     0.250000000000     0          
T        Si     0.125000000000     0.961900000000     0.429900000000     0          
T        Si     0.000000000000     0.814300000000     0.448575000000     0          
T        Si     0.179975000000     0.788100000000     0.375000000000     0          
T        Si     0.000000000000     0.875000000000     0.250000000000     0          
O        O      0.204100000000     0.897300000000     0.250000000000     0          
O        O      0.170850000000     0.946800000000     0.296100000000     0          
O        O      0.170825000000     0.946800000000     0.453925000000     0          
O        O      0.000000000000     0.852700000000     0.295875000000     0          
O        O      0.203900000000     0.803200000000     0.329175000000     0          
O        O      0.046075000000     0.803200000000     0.329175000000     0          
O        O      0.062500000000     0.750000000000     0.375000000000     0          
T        Si     0.198575000000     0.935700000000     0.250000000000     0          
T        Si     0.125000000000     0.961900000000     0.320100000000     0          
T        Si     0.000000000000     0.814300000000     0.301425000000     0          
T        Si     0.070025000000     0.788100000000     0.375000000000     0          
O        O      0.079100000000     0.602700000000     0.250000000000     0          
O        O      0.045850000000     0.553200000000     0.296100000000     0          
O        O      0.125000000000     0.548600000000     0.250000000000     0          
O        O      0.045825000000     0.553200000000     0.453925000000     0          
O        O      0.000000000000     0.546300000000     0.375000000000     0          
O        O      0.000025000000     0.500000000000     0.312750000000     0          
O        O      0.125000000000     0.647300000000     0.295875000000     0          
O        O      0.078900000000     0.696800000000     0.329175000000     0          
O        O      0.125000000000     0.701400000000     0.250000000000     0          
O        O      0.171075000000     0.696800000000     0.329175000000     0          
O        O      0.000000000000     0.703800000000     0.375000000000     0          
T        Si     0.073575000000     0.564300000000     0.250000000000     0          
T        Si     0.000000000000     0.538100000000     0.320100000000     0          
T        Si     0.125000000000     0.685700000000     0.301425000000     0          
T        Si     0.195025000000     0.711900000000     0.375000000000     0          
T        Si     0.125000000000     0.625000000000     0.250000000000     0          
O        O      0.170900000000     0.602700000000     0.250000000000     0          
O        O      0.204150000000     0.553200000000     0.453900000000     0          
O        O      0.204175000000     0.553200000000     0.296075000000     0          
O        O      0.249975000000     0.500000000000     0.437250000000     0          
O        O      0.125000000000     0.647300000000     0.454125000000     0          
O        O      0.171100000000     0.696800000000     0.420825000000     0          
O        O      0.078925000000     0.696800000000     0.420825000000     0          
T        Si     0.176425000000     0.564300000000     0.250000000000     0          
T        Si     0.000000000000     0.538100000000     0.429900000000     0          
T        Si     0.125000000000     0.685700000000     0.448575000000     0          
T        Si     0.054975000000     0.711900000000     0.375000000000     0          
O        O      0.170900000000     0.397300000000     0.250000000000     0          
O        O      0.204150000000     0.446800000000     0.453900000000     0          
O        O      0.125000000000     0.451400000000     0.250000000000     0          
O        O      0.204175000000     0.446800000000     0.296075000000     0          
O        O      0.000000000000     0.453700000000     0.375000000000     0          
O        O      0.125000000000     0.352700000000     0.454125000000     0          
O        O      0.171100000000     0.303200000000     0.420825000000     0          
O        O      0.125000000000     0.298600000000     0.250000000000     0          
O        O      0.078925000000     0.303200000000     0.420825000000     0          
O        O      0.000000000000     0.296200000000     0.375000000000     0          
T        Si     0.176425000000     0.435700000000     0.250000000000     0          
T        Si     0.000000000000     0.461900000000     0.429900000000     0          
T        Si     0.125000000000     0.314300000000     0.448575000000     0          
T        Si     0.054975000000     0.288100000000     0.375000000000     0          
T        Si     0.125000000000     0.375000000000     0.250000000000     0          
O        O      0.079100000000     0.397300000000     0.250000000000     0          
O        O      0.045850000000     0.446800000000     0.296100000000     0          
O        O      0.045825000000     0.446800000000     0.453925000000     0          
O        O      0.125000000000     0.352700000000     0.295875000000     0          
O        O      0.078900000000     0.303200000000     0.329175000000     0          
O        O      0.171075000000     0.303200000000     0.329175000000     0          
T        Si     0.073575000000     0.435700000000     0.250000000000     0          
T        Si     0.000000000000     0.461900000000     0.320100000000     0          
T        Si     0.125000000000     0.314300000000     0.301425000000     0          
T        Si     0.195025000000     0.288100000000     0.375000000000     0          
O        O      0.204100000000     0.102700000000     0.500000000000     0          
O        O      0.170850000000     0.053200000000     0.546100000000     0          
O        O      0.000000000000     0.048600000000     0.500000000000     0          
O        O      0.170825000000     0.053200000000     0.703925000000     0          
O        O      0.125000000000     0.046300000000     0.625000000000     0          
O        O      0.125025000000     0.000000000000     0.562750000000     0          
O        O      0.000000000000     0.147300000000     0.545875000000     0          
O        O      0.203900000000     0.196800000000     0.579175000000     0          
O        O      0.000000000000     0.201400000000     0.500000000000     0          
O        O      0.046075000000     0.196800000000     0.579175000000     0          
O        O      0.125000000000     0.203800000000     0.625000000000     0          
O        O      0.062500000000     0.250000000000     0.625000000000     0          
T        Si     0.198575000000     0.064300000000     0.500000000000     0          
T        Si     0.125000000000     0.038100000000     0.570100000000     0          
T        Si     0.000000000000     0.185700000000     0.551425000000     0          
T        Si     0.070025000000     0.211900000000     0.625000000000     0          
T        Si     0.000000000000     0.125000000000     0.500000000000     0          
O        O      0.045900000000     0.102700000000     0.500000000000     0          
O        O      0.079150000000     0.053200000000     0.703900000000     0          
O        O      0.079175000000     0.053200000000     0.546075000000     0          
O        O      0.124975000000     0.000000000000     0.687250000000     0          
O        O      0.000000000000     0.147300000000     0.704125000000     0          
O        O      0.046100000000     0.196800000000     0.670825000000     0          
O        O      0.203925000000     0.196800000000     0.670825000000     0          
O        O      0.187500000000     0.250000000000     0.625000000000     0          
T        Si     0.051425000000     0.064300000000     0.500000000000     0          
T        Si     0.125000000000     0.038100000000     0.679900000000     0          
T        Si     0.000000000000     0.185700000000     0.698575000000     0          
T        Si     0.179975000000     0.211900000000     0.625000000000     0          
O        O      0.045900000000     0.897300000000     0.500000000000     0          
O        O      0.079150000000     0.946800000000     0.703900000000     0          
O        O      0.000000000000     0.951400000000     0.500000000000     0          
O        O      0.079175000000     0.946800000000     0.546075000000     0          
O        O      0.125000000000     0.953700000000     0.625000000000     0          
O        O      0.000000000000     0.852700000000     0.704125000000     0          
O        O      0.046100000000     0.803200000000     0.670825000000     0          
O        O      0.000000000000     0.798600000000     0.500000000000     0          
O        O      0.203925000000     0.803200000000     0.670825000000     0          
O        O      0.125000000000     0.796200000000     0.625000000000     0          
O        O      0.187500000000     0.750000000000     0.625000000000     0          
T        Si     0.051425000000     0.935700000000     0.500000000000     0          
T        Si     0.125000000000     0.961900000000     0.679900000000     0          
T        Si     0.000000000000     0.814300000000     0.698575000000     0          
T        Si     0.179975000000     0.788100000000     0.625000000000     0          
T        Si     0.000000000000     0.875000000000     0.500000000000     0          
O        O      0.204100000000     0.897300000000     0.500000000000     0          
O        O      0.170850000000     0.946800000000     0.546100000000     0          
O        O      0.170825000000     0.946800000000     0.703925000000     0          
O        O      0.000000000000     0.852700000000     0.545875000000     0          
O        O      0.203900000000     0.803200000000     0.579175000000     0          
O        O      0.046075000000     0.803200000000     0.579175000000     0          
O        O      0.062500000000     0.750000000000     0.625000000000     0          
T        Si     0.198575000000     0.935700000000     0.500000000000     0          
T        Si     0.125000000000     0.961900000000     0.570100000000     0          
T        Si     0.000000000000     0.814300000000     0.551425000000     0          
T        Si     0.070025000000     0.788100000000     0.625000000000     0          
O        O      0.079100000000     0.602700000000     0.500000000000     0          
O        O      0.045850000000     0.553200000000     0.546100000000     0          
O        O      0.125000000000     0.548600000000     0.500000000000     0          
O        O      0.045825000000     0.553200000000     0.703925000000     0          
O        O      0.000000000000     0.546300000000     0.625000000000     0          
O        O      0.000025000000     0.500000000000     0.562750000000     0          
O        O      0.125000000000     0.647300000000     0.545875000000     0          
O        O      0.078900000000     0.696800000000     0.579175000000     0          
O        O      0.125000000000     0.701400000000     0.500000000000     0          
O        O      0.171075000000     0.696800000000     0.579175000000     0          
O        O      0.000000000000     0.703800000000     0.625000000000     0          
T        Si     0.073575000000     0.564300000000     0.500000000000     0          
T        Si     0.000000000000     0.538100000000     0.570100000000     0          
T        Si     0.125000000000     0.685700000000     0.551425000000     0          
T        Si     0.195025000000     0.711900000000     0.625000000000     0          
T        Si     0.125000000000     0.625000000000     0.500000000000     0          
O        O      0.170900000000     0.602700000000     0.500000000000     0          
O        O      0.204150000000     0.553200000000     0.703900000000     0          
O        O      0.204175000000     0.553200000000     0.546075000000     0          
O        O      0.249975000000     0.500000000000     0.687250000000     0          
O        O      0.125000000000     0.647300000000     0.704125000000     0          
O        O      0.171100000000     0.696800000000     0.670825000000     0          
O        O      0.078925000000     0.696800000000     0.670825000000     0          
T        Si     0.176425000000     0.564300000000     0.500000000000     0          
T        Si     0.000000000000     0.538100000000     0.679900000000     0          
T        Si     0.125000000000     0.685700000000     0.698575000000     0          
T        Si     0.054975000000     0.711900000000     0.625000000000     0          
O        O      0.170900000000     0.397300000000     0.500000000000     0          
O        O      0.204150000000     0.446800000000     0.703900000000     0          
O        O      0.125000000000     0.451400000000     0.500000000000     0          
O        O      0.204175000000     0.446800000000     0.546075000000     0          
O        O      0.000000000000     0.453700000000     0.625000000000     0          
O        O      0.125000000000     0.352700000000     0.704125000000     0          
O        O      0.171100000000     0.303200000000     0.670825000000     0          
O        O      0.125000000000     0.298600000000     0.500000000000     0          
O        O      0.078925000000     0.303200000000     0.670825000000     0          
O        O      0.000000000000     0.296200000000     0.625000000000     0          
T        Si     0.176425000000     0.435700000000     0.500000000000     0          
T        Si     0.000000000000     0.461900000000     0.679900000000     0          
T        Si     0.125000000000     0.314300000000     0.698575000000     0          
T        Si     0.054975000000     0.288100000000     0.625000000000     0          
T        Si     0.125000000000     0.375000000000     0.500000000000     0          
O        O      0.079100000000     0.397300000000     0.500000000000     0          
O        O      0.045850000000     0.446800000000     0.546100000000     0          
O        O      0.045825000000     0.446800000000     0.703925000000     0          
O        O      0.125000000000     0.352700000000     0.545875000000     0          
O        O      0.078900000000     0.303200000000     0.579175000000     0          
O        O      0.171075000000     0.303200000000     0.579175000000     0          
T        Si     0.073575000000     0.435700000000     0.500000000000     0          
T        Si     0.000000000000     0.461900000000     0.570100000000     0          
T        Si     0.125000000000     0.314300000000     0.551425000000     0          
T        Si     0.195025000000     0.288100000000     0.625000000000     0          
O        O      0.204100000000     0.102700000000     0.750000000000     0          
O        O      0.170850000000     0.053200000000     0.796100000000     0          
O        O      0.000000000000     0.048600000000     0.750000000000     0          
O        O      0.170825000000     0.053200000000     0.953925000000     0          
O        O      0.125000000000     0.046300000000     0.875000000000     0          
O        O      0.125025000000     0.000000000000     0.812750000000     0          
O        O      0.000000000000     0.147300000000     0.795875000000     0          
O        O      0.203900000000     0.196800000000     0.829175000000     0          
O        O      0.000000000000     0.201400000000     0.750000000000     0          
O        O      0.046075000000     0.196800000000     0.829175000000     0          
O        O      0.125000000000     0.203800000000     0.875000000000     0          
O        O      0.062500000000     0.250000000000     0.875000000000     0          
T        Si     0.198575000000     0.064300000000     0.750000000000     0          
T        Si     0.125000000000     0.038100000000     0.820100000000     0          
T        Si     0.000000000000     0.185700000000     0.801425000000     0          
T        Si     0.070025000000     0.211900000000     0.875000000000     0          
T        Si     0.000000000000     0.125000000000     0.750000000000     0          
O        O      0.045900000000     0.102700000000     0.750000000000     0          
O        O      0.079150000000     0.053200000000     0.953900000000     0          
O        O      0.079175000000     0.053200000000     0.796075000000     0          
O        O      0.124975000000     0.000000000000     0.937250000000     0          
O        O      0.000000000000     0.147300000000     0.954125000000     0          
O        O      0.046100000000     0.196800000000     0.920825000000     0          
O        O      0.203925000000     0.196800000000     0.920825000000     0          
O        O      0.187500000000     0.250000000000     0.875000000000     0          
T        Si     0.051425000000     0.064300000000     0.750000000000     0          
T        Si     0.125000000000     0.038100000000     0.929900000000     0          
T        Si     0.000000000000     0.185700000000     0.948575000000     0          
T        Si     0.179975000000     0.211900000000     0.875000000000     0          
O        O      0.045900000000     0.897300000000     0.750000000000     0          
O        O      0.079150000000     0.946800000000     0.953900000000     0          
O        O      0.000000000000     0.951400000000     0.750000000000     0          
O        O      0.079175000000     0.946800000000     0.796075000000     0          
O        O      0.125000000000     0.953700000000     0.875000000000     0          
O        O      0.000000000000     0.852700000000     0.954125000000     0          
O        O      0.046100000000     0.803200000000     0.920825000000     0          
O        O      0.000000000000     0.798600000000     0.750000000000     0          
O        O      0.203925000000     0.803200000000     0.920825000000     0          
O        O      0.125000000000     0.796200000000     0.875000000000     0          
O        O      0.187500000000     0.750000000000     0.875000000000     0          
T        Si     0.051425000000     0.935700000000     0.750000000000     0          
T        Si     0.125000000000     0.961900000000     0.929900000000     0          
T        Si     0.000000000000     0.814300000000     0.948575000000     0          
T        Si     0.179975000000     0.788100000000     0.875000000000     0          
T        Si     0.000000000000     0.875000000000     0.750000000000     0          
O        O      0.204100000000     0.897300000000     0.750000000000     0          
O        O      0.170850000000     0.946800000000     0.796100000000     0          
O        O      0.170825000000     0.946800000000     0.953925000000     0          
O        O      0.000000000000     0.852700000000     0.795875000000     0          
O        O      0.203900000000     0.803200000000     0.829175000000     0          
O        O      0.046075000000     0.803200000000     0.829175000000     0          
O        O      0.062500000000     0.750000000000     0.875000000000     0          
T        Si     0.198575000000     0.935700000000     0.750000000000     0          
T        Si     0.125000000000     0.961900000000     0.820100000000     0          
T        Si     0.000000000000     0.814300000000     0.801425000000     0          
T        Si     0.070025000000     0.788100000000     0.875000000000     0          
O        O      0.079100000000     0.602700000000     0.750000000000     0          
O        O      0.045850000000     0.553200000000     0.796100000000     0          
O        O      0.125000000000     0.548600000000     0.750000000000     0          
O        O      0.045825000000     0.553200000000     0.953925000000     0          
O        O      0.000000000000     0.546300000000     0.875000000000     0          
O        O      0.000025000000     0.500000000000     0.812750000000     0          
O        O      0.125000000000     0.647300000000     0.795875000000     0          
O        O      0.078900000000     0.696800000000     0.829175000000     0          
O        O      0.125000000000     0.701400000000     0.750000000000     0          
O        O      0.171075000000     0.696800000000     0.829175000000     0          
O        O      0.000000000000     0.703800000000     0.875000000000     0          
T        Si     0.073575000000     0.564300000000     0.750000000000     0          
T        Si     0.000000000000     0.538100000000     0.820100000000     0          
T        Si     0.125000000000     0.685700000000     0.801425000000     0          
T        Si     0.195025000000     0.711900000000     0.875000000000     0          
T        Si     0.125000000000     0.625000000000     0.750000000000     0          
O        O      0.170900000000     0.602700000000     0.750000000000     0          
O        O      0.204150000000     0.553200000000     0.953900000000     0          
O        O      0.204175000000     0.553200000000     0.796075000000     0          
O        O      0.249975000000     0.500000000000     0.937250000000     0          
O        O      0.125000000000     0.647300000000     0.954125000000     0          
O        O      0.171100000000     0.696800000000     0.920825000000     0          
O        O      0.078925000000     0.696800000000     0.920825000000     0          
T        Si     0.176425000000     0.564300000000     0.750000000000     0          
T        Si     0.000000000000     0.538100000000     0.929900000000     0          
T        Si     0.125000000000     0.685700000000     0.948575000000     0          
T        Si     0.054975000000     0.711900000000     0.875000000000     0          
O        O      0.170900000000     0.397300000000     0.750000000000     0          
O        O      0.204150000000     0.446800000000     0.953900000000     0          
O        O      0.125000000000     0.451400000000     0.750000000000     0          
O        O      0.204175000000     0.446800000000     0.796075000000     0          
O        O      0.000000000000     0.453700000000     0.875000000000     0          
O        O      0.125000000000     0.352700000000     0.954125000000     0          
O        O      0.171100000000     0.303200000000     0.920825000000     0          
O        O      0.125000000000     0.298600000000     0.750000000000     0          
O        O      0.078925000000     0.303200000000     0.920825000000     0          
O        O      0.000000000000     0.296200000000     0.875000000000     0          
T        Si     0.176425000000     0.435700000000     0.750000000000     0          
T        Si     0.000000000000     0.461900000000     0.929900000000     0          
T        Si     0.125000000000     0.314300000000     0.948575000000     0          
T        Si     0.054975000000     0.288100000000     0.875000000000     0          
T        Si     0.125000000000     0.375000000000     0.750000000000     0          
O        O      0.079100000000     0.397300000000     0.750000000000     0          
O        O      0.045850000000     0.446800000000     0.796100000000     0          
O        O      0.045825000000     0.446800000000     0.953925000000     0          
O        O      0.125000000000     0.352700000000     0.795875000000     0          
O        O      0.078900000000     0.303200000000     0.829175000000     0          
O        O      0.171075000000     0.303200000000     0.829175000000     0          
T        Si     0.073575000000     0.435700000000     0.750000000000     0          
T        Si     0.000000000000     0.461900000000     0.820100000000     0          
T        Si     0.125000000000     0.314300000000     0.801425000000     0          
T        Si     0.195025000000     0.288100000000     0.875000000000     0          
O        O      0.454100000000     0.102700000000     0.000000000000     0          
O        O      0.420850000000     0.053200000000     0.046100000000     0          
O        O      0.250000000000     0.048600000000     0.000000000000     0          
O        O      0.420825000000     0.053200000000     0.203925000000     0          
O        O      0.375000000000     0.046300000000     0.125000000000     0          
O        O      0.375025000000     0.000000000000     0.062750000000     0          
O        O      0.250000000000     0.147300000000     0.045875000000     0          
O        O      0.453900000000     0.196800000000     0.079175000000     0          
O        O      0.250000000000     0.201400000000     0.000000000000     0          
O        O      0.296075000000     0.196800000000     0.079175000000     0          
O        O      0.375000000000     0.203800000000     0.125000000000     0          
O        O      0.312500000000     0.250000000000     0.125000000000     0          
T        Si     0.448575000000     0.064300000000     0.000000000000     0          
T        Si     0.375000000000     0.038100000000     0.070100000000     0          
T        Si     0.250000000000     0.185700000000     0.051425000000     0          
T        Si     0.320025000000     0.211900000000     0.125000000000     0          
T        Si     0.250000000000     0.125000000000     0.000000000000     0          
O        O      0.295900000000     0.102700000000     0.000000000000     0          
O        O      0.329150000000     0.053200000000     0.203900000000     0          
O        O      0.329175000000     0.053200000000     0.046075000000     0          
O        O      0.374975000000     0.000000000000     0.187250000000     0          
O        O      0.250000000000     0.147300000000     0.204125000000     0          
O        O      0.296100000000     0.196800000000     0.170825000000     0          
O        O      0.453925000000     0.196800000000     0.170825000000     0          
O        O      0.437500000000     0.250000000000     0.125000000000     0          
T        Si     0.301425000000     0.064300000000     0.000000000000     0          
T        Si     0.375000000000     0.038100000000     0.179900000000     0          
T        Si     0.250000000000     0.185700000000     0.198575000000     0          
T        Si     0.429975000000     0.211900000000     0.125000000000     0          
O        O      0.295900000000     0.897300000000     0.000000000000     0          
O        O      0.329150000000     0.946800000000     0.203900000000     0          
O        O      0.250000000000     0.951400000000     0.000000000000     0          
O        O      0.329175000000     0.946800000000     0.046075000000     0          
O        O      0.375000000000     0.953700000000     0.125000000000     0          
O        O      0.250000000000     0.852700000000     0.204125000000     0          
O        O      0.296100000000     0.803200000000     0.170825000000     0          
O        O      0.250000000000     0.798600000000     0.000000000000     0          
O        O      0.453925000000     0.803200000000     0.170825000000     0          
O        O      0.375000000000     0.796200000000     0.125000000000     0          
O        O      0.437500000000     0.750000000000     0.125000000000     0          
T        Si     0.301425000000     0.935700000000     0.000000000000     0          
T        Si     0.375000000000     0.961900000000     0.179900000000     0          
T        Si     0.250000000000     0.814300000000     0.198575000000     0          
T        Si     0.429975000000     0.788100000000     0.125000000000     0          
T        Si     0.250000000000     0.875000000000     0.000000000000     0          
O        O      0.454100000000     0.897300000000     0.000000000000     0          
O        O      0.420850000000     0.946800000000     0.046100000000     0          
O        O      0.420825000000     0.946800000000     0.203925000000     0          
O        O      0.250000000000     0.852700000000     0.045875000000     0          
O        O      0.453900000000     0.803200000000     0.079175000000     0          
O        O      0.296075000000     0.803200000000     0.079175000000     0          
O        O      0.312500000000     0.750000000000     0.125000000000     0          
T        Si     0.448575000000     0.935700000000     0.000000000000     0          
T        Si     0.375000000000     0.961900000000     0.070100000000     0          
T        Si     0.250000000000     0.814300000000     0.051425000000     0          
T        Si     0.320025000000     0.788100000000     0.125000000000     0          
O        O      0.329100000000     0.602700000000     0.000000000000     0          
O        O      0.295850000000     0.553200000000     0.046100000000     0          
O        O      0.375000000000     0.548600000000     0.000000000000     0          
O        O      0.295825000000     0.553200000000     0.203925000000     0          
O        O      0.250000000000     0.546300000000     0.125000000000     0          
O        O      0.250025000000     0.500000000000     0.062750000000     0          
O        O      0.375000000000     0.647300000000     0.045875000000     0          
O        O      0.328900000000     0.696800000000     0.079175000000     0          
O        O      0.375000000000     0.701400000000     0.000000000000     0          
O        O      0.421075000000     0.696800000000     0.079175000000     0          
O        O      0.250000000000     0.703800000000     0.125000000000     0          
T        Si     0.323575000000     0.564300000000     0.000000000000     0          
T        Si     0.250000000000     0.538100000000     0.070100000000     0          
T        Si     0.375000000000     0.685700000000     0.051425000000     0          
T        Si     0.445025000000     0.711900000000     0.125000000000     0          
T        Si     0.375000000000     0.625000000000     0.000000000000     0          
O        O      0.420900000000     0.602700000000     0.000000000000     0          
O        O      0.454150000000     0.553200000000     0.203900000000     0          
O        O      0.454175000000     0.553200000000     0.046075000000     0          
O        O      0.499975000000     0.500000000000     0.187250000000     0          
O        O      0.375000000000     0.647300000000     0.204125000000     0          
O        O      0.421100000000     0.696800000000     0.170825000000     0          
O        O      0.328925000000     0.696800000000     0.170825000000     0          
T        Si     0.426425000000     0.564300000000     0.000000000000     0          
T        Si     0.250000000000     0.538100000000     0.179900000000     0          
T        Si     0.375000000000     0.685700000000     0.198575000000     0          
T        Si     0.304975000000     0.711900000000     0.125000000000     0          
O        O      0.420900000000     0.397300000000     0.000000000000     0          
O        O      0.454150000000     0.446800000000     0.203900000000     0          
O        O      0.375000000000     0.451400000000     0.000000000000     0          
O        O      0.454175000000     0.446800000000     0.046075000000     0          
O        O      0.250000000000     0.453700000000     0.125000000000     0          
O        O      0.375000000000     0.352700000000     0.204125000000     0          
O        O      0.421100000000     0.303200000000     0.170825000000     0          
O        O      0.375000000000     0.298600000000     0.000000000000     0          
O        O      0.328925000000     0.303200000000     0.170825000000     0          
O        O      0.250000000000     0.296200000000     0.125000000000     0          
T        Si     0.426425000000     0.435700000000     0.000000000000     0          
T        Si     0.250000000000     0.461900000000     0.179900000000     0          
T        Si     0.375000000000     0.314300000000     0.198575000000     0          
T        Si     0.304975000000     0.288100000000     0.125000000000     0          
T        Si     0.375000000000     0.375000000000     0.000000000000     0          
O        O      0.329100000000     0.397300000000     0.000000000000     0          
O        O      0.295850000000     0.446800000000     0.046100000000     0          
O        O      0.295825000000     0.446800000000     0.203925000000     0          
O        O      0.375000000000     0.352700000000     0.045875000000     0          
O        O      0.328900000000     0.303200000000     0.079175000000     0          
O        O      0.421075000000     0.303200000000     0.079175000000     0          
T        Si     0.323575000000     0.435700000000     0.000000000000     0          
T        Si     0.250000000000     0.461900000000     0.070100000000     0          
T        Si     0.375000000000     0.314300000000     0.051425000000     0          
T        Si     0.445025000000     0.288100000000     0.125000000000     0          
O        O      0.454100000000     0.102700000000     0.250000000000     0          
O        O      0.420850000000     0.053200000000     0.296100000000     0          
O        O      0.250000000000     0.048600000000     0.250000000000     0          
O        O      0.420825000000     0.053200000000     0.453925000000     0          
O        O      0.375000000000     0.046300000000     0.375000000000     0          
O        O      0.375025000000     0.000000000000     0.312750000000     0          
O        O      0.250000000000     0.147300000000     0.295875000000     0          
O        O      0.453900000000     0.196800000000     0.329175000000     0          
O        O      0.250000000000     0.201400000000     0.250000000000     0          
O        O      0.296075000000     0.196800000000     0.329175000000     0          
O        O      0.375000000000     0.203800000000     0.375000000000     0          
O        O      0.312500000000     0.250000000000     0.375000000000     0          
T        Si     0.448575000000     0.064300000000     0.250000000000     0          
T        Si     0.375000000000     0.038100000000     0.320100000000     0          
T        Si     0.250000000000     0.185700000000     0.301425000000     0          
T        Si     0.320025000000     0.211900000000     0.375000000000     0          
T        Si     0.250000000000     0.125000000000     0.250000000000     0          
O        O      0.295900000000     0.102700000000     0.250000000000     0          
O        O      0.329150000000     0.053200000000     0.453900000000     0          
O        O      0.329175000000     0.053200000000     0.296075000000     0          
O        O      0.374975000000     0.000000000000     0.437250000000     0          
O        O      0.250000000000     0.147300000000     0.454125000000     0          
O        O      0.296100000000     0.196800000000     0.420825000000     0          
O        O      0.453925000000     0.196800000000     0.420825000000     0          
O        O      0.437500000000     0.250000000000     0.375000000000     0          
T        Si     0.301425000000     0.064300000000     0.250000000000     0          
T        Si     0.375000000000     0.038100000000     0.429900000000     0          
T        Si     0.250000000000     0.185700000000     0.448575000000     0          
T        Si     0.429975000000     0.211900000000     0.375000000000     0          
O        O      0.295900000000     0.897300000000     0.250000000000     0          
O        O      0.329150000000     0.946800000000     0.453900000000     0          
O        O      0.250000000000     0.951400000000     0.250000000000     0          
O        O      0.329175000000     0.946800000000     0.296075000000     0          
O        O      0.375000000000     0.953700000000     0.375000000000     0          
O        O      0.250000000000     0.852700000000     0.454125000000     0          
O        O      0.296100000000     0.803200000000     0.420825000000     0          
O        O      0.250000000000     0.798600000000     0.250000000000     0          
O        O      0.453925000000     0.803200000000     0.420825000000     0          
O        O      0.375000000000     0.796200000000     0.375000000000     0          
O        O      0.437500000000     0.750000000000     0.375000000000     0          
T        Si     0.301425000000     0.935700000000     0.250000000000     0          
T        Si     0.375000000000     0.961900000000     0.429900000000     0          
T        Si     0.250000000000     0.814300000000     0.448575000000     0          
T        Si     0.429975000000     0.788100000000     0.375000000000     0          
T        Si     0.250000000000     0.875000000000     0.250000000000     0          
O        O      0.454100000000     0.897300000000     0.250000000000     0          
O        O      0.420850000000     0.946800000000     0.296100000000     0          
O        O      0.420825000000     0.946800000000     0.453925000000     0          
O        O      0.250000000000     0.852700000000     0.295875000000     0          
O        O      0.453900000000     0.803200000000     0.329175000000     0          
O        O      0.296075000000     0.803200000000     0.329175000000     0          
O        O      0.312500000000     0.750000000000     0.375000000000     0          
T        Si     0.448575000000     0.935700000000     0.250000000000     0          
T        Si     0.375000000000     0.961900000000     0.320100000000     0          
T        Si     0.250000000000     0.814300000000     0.301425000000     0          
T        Si     0.320025000000     0.788100000000     0.375000000000     0          
O        O      0.329100000000     0.602700000000     0.250000000000     0          
O        O      0.295850000000     0.553200000000     0.296100000000     0          
O        O      0.375000000000     0.548600000000     0.250000000000     0          
O        O      0.295825000000     0.553200000000     0.453925000000     0          
O        O      0.250000000000     0.546300000000     0.375000000000     0          
O        O      0.250025000000     0.500000000000     0.312750000000     0          
O        O      0.375000000000     0.647300000000     0.295875000000     0          
O        O      0.328900000000     0.696800000000     0.329175000000     0          
O        O      0.375000000000     0.701400000000     0.250000000000     0          
O        O      0.421075000000     0.696800000000     0.329175000000     0          
O        O      0.250000000000     0.703800000000     0.375000000000     0          
T        Si     0.323575000000     0.564300000000     0.250000000000     0          
T        Si     0.250000000000     0.538100000000     0.320100000000     0          
T        Si     0.375000000000     0.685700000000     0.301425000000     0          
T        Si     0.445025000000     0.711900000000     0.375000000000     0          
T        Si     0.375000000000     0.625000000000     0.250000000000     0          
O        O      0.420900000000     0.602700000000     0.250000000000     0          
O        O      0.454150000000     0.553200000000     0.453900000000     0          
O        O      0.454175000000     0.553200000000     0.296075000000     0          
O        O      0.499975000000     0.500000000000     0.437250000000     0          
O        O      0.375000000000     0.647300000000     0.454125000000     0          
O        O      0.421100000000     0.696800000000     0.420825000000     0          
O        O      0.328925000000     0.696800000000     0.420825000000     0          
T        Si     0.426425000000     0.564300000000     0.250000000000     0          
T        Si     0.250000000000     0.538100000000     0.429900000000     0          
T        Si     0.375000000000     0.685700000000     0.448575000000     0          
T        Si     0.304975000000     0.711900000000     0.375000000000     0          
O        O      0.420900000000     0.397300000000     0.250000000000     0          
O        O      0.454150000000     0.446800000000     0.453900000000     0          
O        O      0.375000000000     0.451400000000     0.250000000000     0          
O        O      0.454175000000     0.446800000000     0.296075000000     0          
O        O      0.250000000000     0.453700000000     0.375000000000     0          
O        O      0.375000000000     0.352700000000     0.454125000000     0          
O        O      0.421100000000     0.303200000000     0.420825000000     0          
O        O      0.375000000000     0.298600000000     0.250000000000     0          
O        O      0.328925000000     0.303200000000     0.420825000000     0          
O        O      0.250000000000     0.296200000000     0.375000000000     0          
T        Si     0.426425000000     0.435700000000     0.250000000000     0          
T        Si     0.250000000000     0.461900000000     0.429900000000     0          
T        Si     0.375000000000     0.314300000000     0.448575000000     0          
T        Si     0.304975000000     0.288100000000     0.375000000000     0          
T        Si     0.375000000000     0.375000000000     0.250000000000     0          
O        O      0.329100000000     0.397300000000     0.250000000000     0          
O        O      0.295850000000     0.446800000000     0.296100000000     0          
O        O      0.295825000000     0.446800000000     0.453925000000     0          
O        O      0.375000000000     0.352700000000     0.295875000000     0          
O        O      0.328900000000     0.303200000000     0.329175000000     0          
O        O      0.421075000000     0.303200000000     0.329175000000     0          
T        Si     0.323575000000     0.435700000000     0.250000000000     0          
T        Si     0.250000000000     0.461900000000     0.320100000000     0          
T        Si     0.375000000000     0.314300000000     0.301425000000     0          
T        Si     0.445025000000     0.288100000000     0.375000000000     0          
O        O      0.454100000000     0.102700000000     0.500000000000     0          
O        O      0.420850000000     0.053200000000     0.546100000000     0          
O        O      0.250000000000     0.048600000000     0.500000000000     0          
O        O      0.420825000000     0.053200000000     0.703925000000     0          
O        O      0.375000000000     0.046300000000     0.625000000000     0          
O        O      0.375025000000     0.000000000000     0.562750000000     0          
O        O      0.250000000000     0.147300000000     0.545875000000     0          
O        O      0.453900000000     0.196800000000     0.579175000000     0          
O        O      0.250000000000     0.201400000000     0.500000000000     0          
O        O      0.296075000000     0.196800000000     0.579175000000     0          
O        O      0.375000000000     0.203800000000     0.625000000000     0          
O        O      0.312500000000     0.250000000000     0.625000000000     0          
T        Si     0.448575000000     0.064300000000     0.500000000000     0          
T        Si     0.375000000000     0.038100000000     0.570100000000     0          
T        Si     0.250000000000     0.185700000000     0.551425000000     0          
T        Si     0.320025000000     0.211900000000     0.625000000000     0          
T        Si     0.250000000000     0.125000000000     0.500000000000     0          
O        O      0.295900000000     0.102700000000     0.500000000000     0          
O        O      0.329150000000     0.053200000000     0.703900000000     0          
O        O      0.329175000000     0.053200000000     0.546075000000     0          
O        O      0.374975000000     0.000000000000     0.687250000000     0          
O        O      0.250000000000     0.147300000000     0.704125000000     0          
O        O      0.296100000000     0.196800000000     0.670825000000     0          
O        O      0.453925000000     0.196800000000     0.670825000000     0          
O        O      0.437500000000     0.250000000000     0.625000000000     0          
T        Si     0.301425000000     0.064300000000     0.500000000000     0          
T        Si     0.375000000000     0.038100000000     0.679900000000     0          
T        Si     0.250000000000     0.185700000000     0.698575000000     0          
T        Si     0.429975000000     0.211900000000     0.625000000000     0          
O        O      0.295900000000     0.897300000000     0.500000000000     0          
O        O      0.329150000000     0.946800000000     0.703900000000     0          
O        O      0.250000000000     0.951400000000     0.500000000000     0          
O        O      0.329175000000     0.946800000000     0.546075000000     0          
O        O      0.375000000000     0.953700000000     0.625000000000     0          
O        O      0.250000000000     0.852700000000     0.704125000000     0          
O        O      0.296100000000     0.803200000000     0.670825000000     0          
O        O      0.250000000000     0.798600000000     0.500000000000     0          
O        O      0.453925000000     0.803200000000     0.670825000000     0          
O        O      0.375000000000     0.796200000000     0.625000000000     0          
O        O      0.437500000000     0.750000000000     0.625000000000     0          
T        Si     0.301425000000     0.935700000000     0.500000000000     0          
T        Si     0.375000000000     0.961900000000     0.679900000000     0          
T        Si     0.250000000000     0.814300000000     0.698575000000     0          
T        Si     0.429975000000     0.788100000000     0.625000000000     0          
T        Si     0.250000000000     0.875000000000     0.500000000000     0          
O        O      0.454100000000     0.897300000000     0.500000000000     0          
O        O      0.420850000000     0.946800000000     0.546100000000     0          
O        O      0.420825000000     0.946800000000     0.703925000000     0          
O        O      0.250000000000     0.852700000000     0.545875000000     0          
O        O      0.453900000000     0.803200000000     0.579175000000     0          
O        O      0.296075000000     0.803200000000     0.579175000000     0          
O        O      0.312500000000     0.750000000000     0.625000000000     0          
T        Si     0.448575000000     0.935700000000     0.500000000000     0          
T        Si     0.375000000000     0.961900000000     0.570100000000     0          
T        Si     0.250000000000     0.814300000000     0.551425000000     0          
T        Si     0.320025000000     0.788100000000     0.625000000000     0          
O        O      0.329100000000     0.602700000000     0.500000000000     0          
O        O      0.295850000000     0.553200000000     0.546100000000     0          
O        O      0.375000000000     0.548600000000     0.500000000000     0          
O        O      0.295825000000     0.553200000000     0.703925000000     0          
O        O      0.250000000000     0.546300000000     0.625000000000     0          
O        O      0.250025000000     0.500000000000     0.562750000000     0          
O        O      0.375000000000     0.647300000000     0.545875000000     0          
O        O      0.328900000000     0.696800000000     0.579175000000     0          
O        O      0.375000000000     0.701400000000     0.500000000000     0          
O        O      0.421075000000     0.696800000000     0.579175000000     0          
O        O      0.250000000000     0.703800000000     0.625000000000     0          
T        Si     0.323575000000     0.564300000000     0.500000000000     0          
T        Si     0.250000000000     0.538100000000     0.570100000000     0          
T        Si     0.375000000000     0.685700000000     0.551425000000     0          
T        Si     0.445025000000     0.711900000000     0.625000000000     0          
T        Si     0.375000000000     0.625000000000     0.500000000000     0          
O        O      0.420900000000     0.602700000000     0.500000000000     0          
O        O      0.454150000000     0.553200000000     0.703900000000     0          
O        O      0.454175000000     0.553200000000     0.546075000000     0          
O        O      0.499975000000     0.500000000000     0.687250000000     0          
O        O      0.375000000000     0.647300000000     0.704125000000     0          
O        O      0.421100000000     0.696800000000     0.670825000000     0          
O        O      0.328925000000     0.696800000000     0.670825000000     0          
T        Si     0.426425000000     0.564300000000     0.500000000000     0          
T        Si     0.250000000000     0.538100000000     0.679900000000     0          
T        Si     0.375000000000     0.685700000000     0.698575000000     0          
T        Si     0.304975000000     0.711900000000     0.625000000000     0          
O        O      0.420900000000     0.397300000000     0.500000000000     0          
O        O      0.454150000000     0.446800000000     0.703900000000     0          
O        O      0.375000000000     0.451400000000     0.500000000000     0          
O        O      0.454175000000     0.446800000000     0.546075000000     0          
O        O      0.250000000000     0.453700000000     0.625000000000     0          
O        O      0.375000000000     0.352700000000     0.704125000000     0          
O        O      0.421100000000     0.303200000000     0.670825000000     0          
O        O      0.375000000000     0.298600000000     0.500000000000     0          
O        O      0.328925000000     0.303200000000     0.670825000000     0          
O        O      0.250000000000     0.296200000000     0.625000000000     0          
T        Si     0.426425000000     0.435700000000     0.500000000000     0          
T        Si     0.250000000000     0.461900000000     0.679900000000     0          
T        Si     0.375000000000     0.314300000000     0.698575000000     0          
T        Si     0.304975000000     0.288100000000     0.625000000000     0          
T        Si     0.375000000000     0.375000000000     0.500000000000     0          
O        O      0.329100000000     0.397300000000     0.500000000000     0          
O        O      0.295850000000     0.446800000000     0.546100000000     0          
O        O      0.295825000000     0.446800000000     0.703925000000     0          
O        O      0.375000000000     0.352700000000     0.545875000000     0          
O        O      0.328900000000     0.303200000000     0.579175000000     0          
O        O      0.421075000000     0.303200000000     0.579175000000     0          
T        Si     0.323575000000     0.435700000000     0.500000000000     0          
T        Si     0.250000000000     0.461900000000     0.570100000000     0          
T        Si     0.375000000000     0.314300000000     0.551425000000     0          
T        Si     0.445025000000     0.288100000000     0.625000000000     0          
O        O      0.454100000000     0.102700000000     0.750000000000     0          
O        O      0.420850000000     0.053200000000     0.796100000000     0          
O        O      0.250000000000     0.048600000000     0.750000000000     0          
O        O      0.420825000000     0.053200000000     0.953925000000     0          
O        O      0.375000000000     0.046300000000     0.875000000000     0          
O        O      0.375025000000     0.000000000000     0.812750000000     0          
O        O      0.250000000000     0.147300000000     0.795875000000     0          
O        O      0.453900000000     0.196800000000     0.829175000000     0          
O        O      0.250000000000     0.201400000000     0.750000000000     0          
O        O      0.296075000000     0.196800000000     0.829175000000     0          
O        O      0.375000000000     0.203800000000     0.875000000000     0          
O        O      0.312500000000     0.250000000000     0.875000000000     0          
T        Si     0.448575000000     0.064300000000     0.750000000000     0          
T        Si     0.375000000000     0.038100000000     0.820100000000     0          
T        Si     0.250000000000     0.185700000000     0.801425000000     0          
T        Si     0.320025000000     0.211900000000     0.875000000000     0          
T        Si     0.250000000000     0.125000000000     0.750000000000     0          
O        O      0.295900000000     0.102700000000     0.750000000000     0          
O        O      0.329150000000     0.053200000000     0.953900000000     0          
O        O      0.329175000000     0.053200000000     0.796075000000     0          
O        O      0.374975000000     0.000000000000     0.937250000000     0          
O        O      0.250000000000     0.147300000000     0.954125000000     0          
O        O      0.296100000000     0.196800000000     0.920825000000     0          
O        O      0.453925000000     0.196800000000     0.920825000000     0          
O        O      0.437500000000     0.250000000000     0.875000000000     0          
T        Si     0.301425000000     0.064300000000     0.750000000000     0          
T        Si     0.375000000000     0.038100000000     0.929900000000     0          
T        Si     0.250000000000     0.185700000000     0.948575000000     0          
T        Si     0.429975000000     0.211900000000     0.875000000000     0          
O        O      0.295900000000     0.897300000000     0.750000000000     0          
O        O      0.329150000000     0.946800000000     0.953900000000     0          
O        O      0.250000000000     0.951400000000     0.750000000000     0          
O        O      0.329175000000     0.946800000000     0.796075000000     0          
O        O      0.375000000000     0.953700000000     0.875000000000     0          
O        O      0.250000000000     0.852700000000     0.954125000000     0          
O        O      0.296100000000     0.803200000000     0.920825000000     0          
O        O      0.250000000000     0.798600000000     0.750000000000     0          
O        O      0.453925000000     0.803200000000     0.920825000000     0          
O        O      0.375000000000     0.796200000000     0.875000000000     0          
O        O      0.437500000000     0.750000000000     0.875000000000     0          
T        Si     0.301425000000     0.935700000000     0.750000000000     0          
T        Si     0.375000000000     0.961900000000     0.929900000000     0          
T        Si     0.250000000000     0.814300000000     0.948575000000     0          
T        Si     0.429975000000     0.788100000000     0.875000000000     0          
T        Si     0.250000000000     0.875000000000     0.750000000000     0          
O        O      0.454100000000     0.897300000000     0.750000000000     0          
O        O      0.420850000000     0.946800000000     0.796100000000     0          
O        O      0.420825000000     0.946800000000     0.953925000000     0          
O        O      0.250000000000     0.852700000000     0.795875000000     0          
O        O      0.453900000000     0.803200000000     0.829175000000     0          
O        O      0.296075000000     0.803200000000     0.829175000000     0          
O        O      0.312500000000     0.750000000000     0.875000000000     0          
T        Si     0.448575000000     0.935700000000     0.750000000000     0          
T        Si     0.375000000000     0.961900000000     0.820100000000     0          
T        Si     0.250000000000     0.814300000000     0.801425000000     0          
T        Si     0.320025000000     0.788100000000     0.875000000000     0          
O        O      0.329100000000     0.602700000000     0.750000000000     0          
O        O      0.295850000000     0.553200000000     0.796100000000     0          
O        O      0.375000000000     0.548600000000     0.750000000000     0          
O        O      0.295825000000     0.553200000000     0.953925000000     0          
O        O      0.250000000000     0.546300000000     0.875000000000     0          
O        O      0.250025000000     0.500000000000     0.812750000000     0          
O        O      0.375000000000     0.647300000000     0.795875000000     0          
O        O      0.328900000000     0.696800000000     0.829175000000     0          
O        O      0.375000000000     0.701400000000     0.750000000000     0          
O        O      0.421075000000     0.696800000000     0.829175000000     0          
O        O      0.250000000000     0.703800000000     0.875000000000     0          
T        Si     0.323575000000     0.564300000000     0.750000000000     0          
T        Si     0.250000000000     0.538100000000     0.820100000000     0          
T        Si     0.375000000000     0.685700000000     0.801425000000     0          
T        Si     0.445025000000     0.711900000000     0.875000000000     0          
T        Si     0.375000000000     0.625000000000     0.750000000000     0          
O        O      0.420900000000     0.602700000000     0.750000000000     0          
O        O      0.454150000000     0.553200000000     0.953900000000     0          
O        O      0.454175000000     0.553200000000     0.796075000000     0          
O        O      0.499975000000     0.500000000000     0.937250000000     0          
O        O      0.375000000000     0.647300000000     0.954125000000     0          
O        O      0.421100000000     0.696800000000     0.920825000000     0          
O        O      0.328925000000     0.696800000000     0.920825000000     0          
T        Si     0.426425000000     0.564300000000     0.750000000000     0          
T        Si     0.250000000000     0.538100000000     0.929900000000     0          
T        Si     0.375000000000     0.685700000000     0.948575000000     0          
T        Si     0.304975000000     0.711900000000     0.875000000000     0          
O        O      0.420900000000     0.397300000000     0.750000000000     0          
O        O      0.454150000000     0.446800000000     0.953900000000     0          
O        O      0.375000000000     0.451400000000     0.750000000000     0          
O        O      0.454175000000     0.446800000000     0.796075000000     0          
O        O      0.250000000000     0.453700000000     0.875000000000     0          
O        O      0.375000000000     0.352700000000     0.954125000000     0          
O        O      0.421100000000     0.303200000000     0.920825000000     0          
O        O      0.375000000000     0.298600000000     0.750000000000     0          
O        O      0.328925000000     0.303200000000     0.920825000000     0          
O        O      0.250000000000     0.296200000000     0.875000000000     0          
T        Si     0.426425000000     0.435700000000     0.750000000000     0          
T        Si     0.250000000000     0.461900000000     0.929900000000     0          
T        Si     0.375000000000     0.314300000000     0.948575000000     0          
T        Si     0.304975000000     0.288100000000     0.875000000000     0          
T        Si     0.375000000000     0.375000000000     0.750000000000     0          
O        O      0.329100000000     0.397300000000     0.750000000000     0          
O        O      0.295850000000     0.446800000000     0.796100000000     0          
O        O      0.295825000000     0.446800000000     0.953925000000     0          
O        O      0.375000000000     0.352700000000     0.795875000000     0          
O        O      0.328900000000     0.303200000000     0.829175000000     0          
O        O      0.421075000000     0.303200000000     0.829175000000     0          
T        Si     0.323575000000     0.435700000000     0.750000000000     0          
T        Si     0.250000000000     0.461900000000     0.820100000000     0          
T        Si     0.375000000000     0.314300000000     0.801425000000     0          
T        Si     0.445025000000     0.288100000000     0.875000000000     0          
O        O      0.704100000000     0.102700000000     0.000000000000     0          
O        O      0.670850000000     0.053200000000     0.046100000000     0          
O        O      0.500000000000     0.048600000000     0.000000000000     0          
O        O      0.670825000000     0.053200000000     0.203925000000     0          
O        O      0.625000000000     0.046300000000     0.125000000000     0          
O        O      0.625025000000     0.000000000000     0.062750000000     0          
O        O      0.500000000000     0.147300000000     0.045875000000     0          
O        O      0.703900000000     0.196800000000     0.079175000000     0          
O        O      0.500000000000     0.201400000000     0.000000000000     0          
O        O      0.546075000000     0.196800000000     0.079175000000     0          
O        O      0.625000000000     0.203800000000     0.125000000000     0          
O        O      0.562500000000     0.250000000000     0.125000000000     0          
T        Si     0.698575000000     0.064300000000     0.000000000000     0          
T        Si     0.625000000000     0.038100000000     0.070100000000     0          
T        Si     0.500000000000     0.185700000000     0.051425000000     0          
T        Si     0.570025000000     0.211900000000     0.125000000000     0          
T        Si     0.500000000000     0.125000000000     0.000000000000     0          
O        O      0.545900000000     0.102700000000     0.000000000000     0          
O        O      0.579150000000     0.053200000000     0.203900000000     0          
O        O      0.579175000000     0.053200000000     0.046075000000     0          
O        O      0.624975000000     0.000000000000     0.187250000000     0          
O        O      0.500000000000     0.147300000000     0.204125000000     0          
O        O      0.546100000000     0.196800000000     0.170825000000     0          
O        O      0.703925000000     0.196800000000     0.170825000000     0          
O        O      0.687500000000     0.250000000000     0.125000000000     0          
T        Si     0.551425000000     0.064300000000     0.000000000000     0          
T        Si     0.625000000000     0.038100000000     0.179900000000     0          
T        Si     0.500000000000     0.185700000000     0.198575000000     0          
T        Si     0.679975000000     0.211900000000     0.125000000000     0          
O        O      0.545900000000     0.897300000000     0.000000000000     0          
O        O      0.579150000000     0.946800000000     0.203900000000     0          
O        O      0.500000000000     0.951400000000     0.000000000000     0          
O        O      0.579175000000     0.946800000000     0.046075000000     0          
O        O      0.625000000000     0.953700000000     0.125000000000     0          
O        O      0.500000000000     0.852700000000     0.204125000000     0          
O        O      0.546100000000     0.803200000000     0.170825000000     0          
O        O      0.500000000000     0.798600000000     0.000000000000     0          
O        O      0.703925000000     0.803200000000     0.170825000000     0          
O        O      0.625000000000     0.796200000000     0.125000000000     0          
O        O      0.687500000000     0.750000000000     0.125000000000     0          
T        Si     0.551425000000     0.935700000000     0.000000000000     0          
T        Si     0.625000000000     0.961900000000     0.179900000000     0          
T        Si     0.500000000000     0.814300000000     0.198575000000     0          
T        Si     0.679975000000     0.788100000000     0.125000000000     0          
T        Si     0.500000000000     0.875000000000     0.000000000000     0          
O        O      0.704100000000     0.897300000000     0.000000000000     0          
O        O      0.670850000000     0.946800000000     0.046100000000     0          
O        O      0.670825000000     0.946800000000     0.203925000000     0          
O        O      0.500000000000     0.852700000000     0.045875000000     0          
O        O      0.703900000000     0.803200000000     0.079175000000     0          
O        O      0.546075000000     0.803200000000     0.079175000000     0          
O        O      0.562500000000     0.750000000000     0.125000000000     0          
T        Si     0.698575000000     0.935700000000     0.000000000000     0          
T        Si     0.625000000000     0.961900000000     0.070100000000     0          
T        Si     0.500000000000     0.814300000000     0.051425000000     0          
T        Si     0.570025000000     0.788100000000     0.125000000000     0          
O        O      0.579100000000     0.602700000000     0.000000000000     0          
O        O      0.545850000000     0.553200000000     0.046100000000     0          
O        O      0.625000000000     0.548600000000     0.000000000000     0          
O        O      0.545825000000     0.553200000000     0.203925000000     0          
O        O      0.500000000000     0.546300000000     0.125000000000     0          
O        O      0.500025000000     0.500000000000     0.062750000000     0          
O        O      0.625000000000     0.647300000000     0.045875000000     0          
O        O      0.578900000000     0.696800000000     0.079175000000     0          
O        O      0.625000000000     0.701400000000     0.000000000000     0          
O        O      0.671075000000     0.696800000000     0.079175000000     0          
O        O      0.500000000000     0.703800000000     0.125000000000     0          
T        Si     0.573575000000     0.564300000000     0.000000000000     0          
T        Si     0.500000000000     0.538100000000     0.070100000000     0          
T        Si     0.625000000000     0.685700000000     0.051425000000     0          
T        Si     0.695025000000     0.711900000000     0.125000000000     0          
T        Si     0.625000000000     0.625000000000     0.000000000000     0          
O        O      0.670900000000     0.602700000000     0.000000000000     0          
O        O      0.704150000000     0.553200000000     0.203900000000     0          
O        O      0.704175000000     0.553200000000     0.046075000000     0          
O        O      0.749975000000     0.500000000000     0.187250000000     0          
O        O      0.625000000000     0.647300000000     0.204125000000     0          
O        O      0.671100000000     0.696800000000     0.170825000000     0          
O        O      0.578925000000     0.696800000000     0.170825000000     0          
T        Si     0.676425000000     0.564300000000     0.000000000000     0          
T        Si     0.500000000000     0.538100000000     0.179900000000     0          
T        Si     0.625000000000     0.685700000000     0.198575000000     0          
T        Si     0.554975000000     0.711900000000     0.125000000000     0          
O        O      0.670900000000     0.397300000000     0.000000000000     0          
O        O      0.704150000000     0.446800000000     0.203900000000     0          
O        O      0.625000000000     0.451400000000     0.000000000000     0          
O        O      0.704175000000     0.446800000000     0.046075000000     0          
O        O      0.500000000000     0.453700000000     0.125000000000     0          
O        O      0.625000000000     0.352700000000     0.204125000000     0          
O        O      0.671100000000     0.303200000000     0.170825000000     0          
O        O      0.625000000000     0.298600000000     0.000000000000     0          
O        O      0.578925000000     0.303200000000     0.170825000000     0          
O        O      0.500000000000     0.296200000000     0.125000000000     0          
T        Si     0.676425000000     0.435700000000     0.000000000000     0          
T        Si     0.500000000000     0.461900000000     0.179900000000     0          
T        Si     0.625000000000     0.314300000000     0.198575000000     0          
T        Si     0.554975000000     0.288100000000     0.125000000000     0          
T        Si     0.625000000000     0.375000000000     0.000000000000     0          
O        O      0.579100000000     0.397300000000     0.000000000000     0          
O        O      0.545850000000     0.446800000000     0.046100000000     0          
O        O      0.545825000000     0.446800000000     0.203925000000     0          
O        O      0.625000000000     0.352700000000     0.045875000000     0          
O        O      0.578900000000     0.303200000000     0.079175000000     0          
O        O      0.671075000000     0.303200000000     0.079175000000     0          
T        Si     0.573575000000     0.435700000000     0.000000000000     0          
T        Si     0.500000000000     0.461900000000     0.070100000000     0          
T        Si     0.625000000000     0.314300000000     0.051425000000     0          
T        Si     0.695025000000     0.288100000000     0.125000000000     0          
O        O      0.704100000000     0.102700000000     0.250000000000     0          
O        O      0.670850000000     0.053200000000     0.296100000000     0          
O        O      0.500000000000     0.048600000000     0.250000000000     0          
O        O      0.670825000000     0.053200000000     0.453925000000     0          
O        O      0.625000000000     0.046300000000     0.375000000000     0          
O        O      0.625025000000     0.000000000000     0.312750000000     0          
O        O      0.500000000000     0.147300000000     0.295875000000     0          
O        O      0.703900000000     0.196800000000     0.329175000000     0          
O        O      0.500000000000     0.201400000000     0.250000000000     0          
O        O      0.546075000000     0.196800000000     0.329175000000     0          
O        O      0.625000000000     0.203800000000     0.375000000000     0          
O        O      0.562500000000     0.250000000000     0.375000000000     0          
T        Si     0.698575000000     0.064300000000     0.250000000000     0          
T        Si     0.625000000000     0.038100000000     0.320100000000     0          
T        Si     0.500000000000     0.185700000000     0.301425000000     0          
T        Si     0.570025000000     0.211900000000     0.375000000000     0          
T        Si     0.500000000000     0.125000000000     0.250000000000     0          
O        O      0.545900000000     0.102700000000     0.250000000000     0          
O        O      0.579150000000     0.053200000000     0.453900000000     0          
O        O      0.579175000000     0.053200000000     0.296075000000     0          
O        O      0.624975000000     0.000000000000     0.437250000000     0          
O        O      0.500000000000     0.147300000000     0.454125000000     0          
O        O      0.546100000000     0.196800000000     0.420825000000     0          
O        O      0.703925000000     0.196800000000     0.420825000000     0          
O        O      0.687500000000     0.250000000000     0.375000000000     0          
T        Si     0.551425000000     0.064300000000     0.250000000000     0          
T        Si     0.625000000000     0.038100000000     0.429900000000     0          
T        Si     0.500000000000     0.185700000000     0.448575000000     0          
T        Si     0.679975000000     0.211900000000     0.375000000000     0          
O        O      0.545900000000     0.897300000000     0.250000000000     0          
O        O      0.579150000000     0.946800000000     0.453900000000     0          
O        O      0.500000000000     0.951400000000     0.250000000000     0          
O        O      0.579175000000     0.946800000000     0.296075000000     0          
O        O      0.625000000000     0.953700000000     0.375000000000     0          
O        O      0.500000000000     0.852700000000     0.454125000000     0          
O        O      0.546100000000     0.803200000000     0.420825000000     0          
O        O      0.500000000000     0.798600000000     0.250000000000     0          
O        O      0.703925000000     0.803200000000     0.420825000000     0          
O        O      0.625000000000     0.796200000000     0.375000000000     0          
O        O      0.687500000000     0.750000000000     0.375000000000     0          
T        Si     0.551425000000     0.935700000000     0.250000000000     0          
T        Si     0.625000000000     0.961900000000     0.429900000000     0          
T        Si     0.500000000000     0.814300000000     0.448575000000     0          
T        Si     0.679975000000     0.788100000000     0.375000000000     0          
T        Si     0.500000000000     0.875000000000     0.250000000000     0          
O        O      0.704100000000     0.897300000000     0.250000000000     0          
O        O      0.670850000000     0.946800000000     0.296100000000     0          
O        O      0.670825000000     0.946800000000     0.453925000000     0          
O        O      0.500000000000     0.852700000000     0.295875000000     0          
O        O      0.703900000000     0.803200000000     0.329175000000     0          
O        O      0.546075000000     0.803200000000     0.329175000000     0          
O        O      0.562500000000     0.750000000000     0.375000000000     0          
T        Si     0.698575000000     0.935700000000     0.250000000000     0          
T        Si     0.625000000000     0.961900000000     0.320100000000     0          
T        Si     0.500000000000     0.814300000000     0.301425000000     0          
T        Si     0.570025000000     0.788100000000     0.375000000000     0          
O        O      0.579100000000     0.602700000000     0.250000000000     0          
O        O      0.545850000000     0.553200000000     0.296100000000     0          
O        O      0.625000000000     0.548600000000     0.250000000000     0          
O        O      0.545825000000     0.553200000000     0.453925000000     0          
O        O      0.500000000000     0.546300000000     0.375000000000     0          
O        O      0.500025000000     0.500000000000     0.312750000000     0          
O        O      0.625000000000     0.647300000000     0.295875000000     0          
O        O      0.578900000000     0.696800000000     0.329175000000     0          
O        O      0.625000000000     0.701400000000     0.250000000000     0          
O        O      0.671075000000     0.696800000000     0.329175000000     0          
O        O      0.500000000000     0.703800000000     0.375000000000     0          
T        Si     0.573575000000     0.564300000000     0.250000000000     0          
T        Si     0.500000000000     0.538100000000     0.320100000000     0          
T        Si     0.625000000000     0.685700000000     0.301425000000     0          
T        Si     0.695025000000     0.711900000000     0.375000000000     0          
T        Si     0.625000000000     0.625000000000     0.250000000000     0          
O        O      0.670900000000     0.602700000000     0.250000000000     0          
O        O      0.704150000000     0.553200000000     0.453900000000     0          
O        O      0.704175000000     0.553200000000     0.296075000000     0          
O        O      0.749975000000     0.500000000000     0.437250000000     0          
O        O      0.625000000000     0.647300000000     0.454125000000     0          
O        O      0.671100000000     0.696800000000     0.420825000000     0          
O        O      0.578925000000     0.696800000000     0.420825000000     0          
T        Si     0.676425000000     0.564300000000     0.250000000000     0          
T        Si     0.500000000000     0.538100000000     0.429900000000     0          
T        Si     0.625000000000     0.685700000000     0.448575000000     0          
T        Si     0.554975000000     0.711900000000     0.375000000000     0          
O        O      0.670900000000     0.397300000000     0.250000000000     0          
O        O      0.704150000000     0.446800000000     0.453900000000     0          
O        O      0.625000000000     0.451400000000     0.250000000000     0          
O        O      0.704175000000     0.446800000000     0.296075000000     0          
O        O      0.500000000000     0.453700000000     0.375000000000     0          
O        O      0.625000000000     0.352700000000     0.454125000000     0          
O        O      0.671100000000     0.303200000000     0.420825000000     0          
O        O      0.625000000000     0.298600000000     0.250000000000     0          
O        O      0.578925000000     0.303200000000     0.420825000000     0          
O        O      0.500000000000     0.296200000000     0.375000000000     0          
T        Si     0.676425000000     0.435700000000     0.250000000000     0          
T        Si     0.500000000000     0.461900000000     0.429900000000     0          
T        Si     0.625000000000     0.314300000000     0.448575000000     0          
T        Si     0.554975000000     0.288100000000     0.375000000000     0          
T        Si     0.625000000000     0.375000000000     0.250000000000     0          
O        O      0.579100000000     0.397300000000     0.250000000000     0          
O        O      0.545850000000     0.446800000000     0.296100000000     0          
O        O      0.545825000000     0.446800000000     0.453925000000     0          
O        O      0.625000000000     0.352700000000     0.295875000000     0          
O        O      0.578900000000     0.303200000000     0.329175000000     0          
O        O      0.671075000000     0.303200000000     0.329175000000     0          
T        Si     0.573575000000     0.435700000000     0.250000000000     0          
T        Si     0.500000000000     0.461900000000     0.320100000000     0          
T        Si     0.625000000000     0.314300000000     0.301425000000     0          
T        Si     0.695025000000     0.288100000000     0.375000000000     0          
O        O      0.704100000000     0.102700000000     0.500000000000     0          
O        O      0.670850000000     0.053200000000     0.546100000000     0          
O        O      0.500000000000     0.048600000000     0.500000000000     0          
O        O      0.670825000000     0.053200000000     0.703925000000     0          
O        O      0.625000000000     0.046300000000     0.625000000000     0          
O        O      0.625025000000     0.000000000000     0.562750000000     0          
O        O      0.500000000000     0.147300000000     0.545875000000     0          
O        O      0.703900000000     0.196800000000     0.579175000000     0          
O        O      0.500000000000     0.201400000000     0.500000000000     0          
O        O      0.546075000000     0.196800000000     0.579175000000     0          
O        O      0.625000000000     0.203800000000     0.625000000000     0          
O        O      0.562500000000     0.250000000000     0.625000000000     0          
T        Si     0.698575000000     0.064300000000     0.500000000000     0          
T        Si     0.625000000000     0.038100000000     0.570100000000     0          
T        Si     0.500000000000     0.185700000000     0.551425000000     0          
T        Si     0.570025000000     0.211900000000     0.625000000000     0          
T        Si     0.500000000000     0.125000000000     0.500000000000     0          
O        O      0.545900000000     0.102700000000     0.500000000000     0          
O        O      0.579150000000     0.053200000000     0.703900000000     0          
O        O      0.579175000000     0.053200000000     0.546075000000     0          
O        O      0.624975000000     0.000000000000     0.687250000000     0          
O        O      0.500000000000     0.147300000000     0.704125000000     0          
O        O      0.546100000000     0.196800000000     0.670825000000     0          
O        O      0.703925000000     0.196800000000     0.670825000000     0          
O        O      0.687500000000     0.250000000000     0.625000000000     0          
T        Si     0.551425000000     0.064300000000     0.500000000000     0          
T        Si     0.625000000000     0.038100000000     0.679900000000     0          
T        Si     0.500000000000     0.185700000000     0.698575000000     0          
T        Si     0.679975000000     0.211900000000     0.625000000000     0          
O        O      0.545900000000     0.897300000000     0.500000000000     0          
O        O      0.579150000000     0.946800000000     0.703900000000     0          
O        O      0.500000000000     0.951400000000     0.500000000000     0          
O        O      0.579175000000     0.946800000000     0.546075000000     0          
O        O      0.625000000000     0.953700000000     0.625000000000     0          
O        O      0.500000000000     0.852700000000     0.704125000000     0          
O        O      0.546100000000     0.803200000000     0.670825000000     0          
O        O      0.500000000000     0.798600000000     0.500000000000     0          
O        O      0.703925000000     0.803200000000     0.670825000000     0          
O        O      0.625000000000     0.796200000000     0.625000000000     0          
O        O      0.687500000000     0.750000000000     0.625000000000     0          
T        Si     0.551425000000     0.935700000000     0.500000000000     0          
T        Si     0.625000000000     0.961900000000     0.679900000000     0          
T        Si     0.500000000000     0.814300000000     0.698575000000     0          
T        Si     0.679975000000     0.788100000000     0.625000000000     0          
T        Si     0.500000000000     0.875000000000     0.500000000000     0          
O        O      0.704100000000     0.897300000000     0.500000000000     0          
O        O      0.670850000000     0.946800000000     0.546100000000     0          
O        O      0.670825000000     0.946800000000     0.703925000000     0          
O        O      0.500000000000     0.852700000000     0.545875000000     0          
O        O      0.703900000000     0.803200000000     0.579175000000     0          
O        O      0.546075000000     0.803200000000     0.579175000000     0          
O        O      0.562500000000     0.750000000000     0.625000000000     0          
T        Si     0.698575000000     0.935700000000     0.500000000000     0          
T        Si     0.625000000000     0.961900000000     0.570100000000     0          
T        Si     0.500000000000     0.814300000000     0.551425000000     0          
T        Si     0.570025000000     0.788100000000     0.625000000000     0          
O        O      0.579100000000     0.602700000000     0.500000000000     0          
O        O      0.545850000000     0.553200000000     0.546100000000     0          
O        O      0.625000000000     0.548600000000     0.500000000000     0          
O        O      0.545825000000     0.553200000000     0.703925000000     0          
O        O      0.500000000000     0.546300000000     0.625000000000     0          
O        O      0.500025000000     0.500000000000     0.562750000000     0          
O        O      0.625000000000     0.647300000000     0.545875000000     0          
O        O      0.578900000000     0.696800000000     0.579175000000     0          
O        O      0.625000000000     0.701400000000     0.500000000000     0          
O        O      0.671075000000     0.696800000000     0.579175000000     0          
O        O      0.500000000000     0.703800000000     0.625000000000     0          
T        Si     0.573575000000     0.564300000000     0.500000000000     0          
T        Si     0.500000000000     0.538100000000     0.570100000000     0          
T        Si     0.625000000000     0.685700000000     0.551425000000     0          
T        Si     0.695025000000     0.711900000000     0.625000000000     0          
T        Si     0.625000000000     0.625000000000     0.500000000000     0          
O        O      0.670900000000     0.602700000000     0.500000000000     0          
O        O      0.704150000000     0.553200000000     0.703900000000     0          
O        O      0.704175000000     0.553200000000     0.546075000000     0          
O        O      0.749975000000     0.500000000000     0.687250000000     0          
O        O      0.625000000000     0.647300000000     0.704125000000     0          
O        O      0.671100000000     0.696800000000     0.670825000000     0          
O        O      0.578925000000     0.696800000000     0.670825000000     0          
T        Si     0.676425000000     0.564300000000     0.500000000000     0          
T        Si     0.500000000000     0.538100000000     0.679900000000     0          
T        Si     0.625000000000     0.685700000000     0.698575000000     0          
T        Si     0.554975000000     0.711900000000     0.625000000000     0          
O        O      0.670900000000     0.397300000000     0.500000000000     0          
O        O      0.704150000000     0.446800000000     0.703900000000     0          
O        O      0.625000000000     0.451400000000     0.500000000000     0          
O        O      0.704175000000     0.446800000000     0.546075000000     0          
O        O      0.500000000000     0.453700000000     0.625000000000     0          
O        O      0.625000000000     0.352700000000     0.704125000000     0          
O        O      0.671100000000     0.303200000000     0.670825000000     0          
O        O      0.625000000000     0.298600000000     0.500000000000     0          
O        O      0.578925000000     0.303200000000     0.670825000000     0          
O        O      0.500000000000     0.296200000000     0.625000000000     0          
T        Si     0.676425000000     0.435700000000     0.500000000000     0          
T        Si     0.500000000000     0.461900000000     0.679900000000     0          
T        Si     0.625000000000     0.314300000000     0.698575000000     0          
T        Si     0.554975000000     0.288100000000     0.625000000000     0          
T        Si     0.625000000000     0.375000000000     0.500000000000     0          
O        O      0.579100000000     0.397300000000     0.500000000000     0          
O        O      0.545850000000     0.446800000000     0.546100000000     0          
O        O      0.545825000000     0.446800000000     0.703925000000     0          
O        O      0.625000000000     0.352700000000     0.545875000000     0          
O        O      0.578900000000     0.303200000000     0.579175000000     0          
O        O      0.671075000000     0.303200000000     0.579175000000     0          
T        Si     0.573575000000     0.435700000000     0.500000000000     0          
T        Si     0.500000000000     0.461900000000     0.570100000000     0          
T        Si     0.625000000000     0.314300000000     0.551425000000     0          
T        Si     0.695025000000     0.288100000000     0.625000000000     0          
O        O      0.704100000000     0.102700000000     0.750000000000     0          
O        O      0.670850000000     0.053200000000     0.796100000000     0          
O        O      0.500000000000     0.048600000000     0.750000000000     0          
O        O      0.670825000000     0.053200000000     0.953925000000     0          
O        O      0.625000000000     0.046300000000     0.875000000000     0          
O        O      0.625025000000     0.000000000000     0.812750000000     0          
O        O      0.500000000000     0.147300000000     0.795875000000     0          
O        O      0.703900000000     0.196800000000     0.829175000000     0          
O        O      0.500000000000     0.201400000000     0.750000000000     0          
O        O      0.546075000000     0.196800000000     0.829175000000     0          
O        O      0.625000000000     0.203800000000     0.875000000000     0          
O        O      0.562500000000     0.250000000000     0.875000000000     0          
T        Si     0.698575000000     0.064300000000     0.750000000000     0          
T        Si     0.625000000000     0.038100000000     0.820100000000     0          
T        Si     0.500000000000     0.185700000000     0.801425000000     0          
T        Si     0.570025000000     0.211900000000     0.875000000000     0          
T        Si     0.500000000000     0.125000000000     0.750000000000     0          
O        O      0.545900000000     0.102700000000     0.750000000000     0          
O        O      0.579150000000     0.053200000000     0.953900000000     0          
O        O      0.579175000000     0.053200000000     0.796075000000     0          
O        O      0.624975000000     0.000000000000     0.937250000000     0          
O        O      0.500000000000     0.147300000000     0.954125000000     0          
O        O      0.546100000000     0.196800000000     0.920825000000     0          
O        O      0.703925000000     0.196800000000     0.920825000000     0          
O        O      0.687500000000     0.250000000000     0.875000000000     0          
T        Si     0.551425000000     0.064300000000     0.750000000000     0          
T        Si     0.625000000000     0.038100000000     0.929900000000     0          
T        Si     0.500000000000     0.185700000000     0.948575000000     0          
T        Si     0.679975000000     0.211900000000     0.875000000000     0          
O        O      0.545900000000     0.897300000000     0.750000000000     0          
O        O      0.579150000000     0.946800000000     0.953900000000     0          
O        O      0.500000000000     0.951400000000     0.750000000000     0          
O        O      0.579175000000     0.946800000000     0.796075000000     0          
O        O      0.625000000000     0.953700000000     0.875000000000     0          
O        O      0.500000000000     0.852700000000     0.954125000000     0          
O        O      0.546100000000     0.803200000000     0.920825000000     0          
O        O      0.500000000000     0.798600000000     0.750000000000     0          
O        O      0.703925000000     0.803200000000     0.920825000000     0          
O        O      0.625000000000     0.796200000000     0.875000000000     0          
O        O      0.687500000000     0.750000000000     0.875000000000     0          
T        Si     0.551425000000     0.935700000000     0.750000000000     0          
T        Si     0.625000000000     0.961900000000     0.929900000000     0          
T        Si     0.500000000000     0.814300000000     0.948575000000     0          
T        Si     0.679975000000     0.788100000000     0.875000000000     0          
T        Si     0.500000000000     0.875000000000     0.750000000000     0          
O        O      0.704100000000     0.897300000000     0.750000000000     0          
O        O      0.670850000000     0.946800000000     0.796100000000     0          
O        O      0.670825000000     0.946800000000     0.953925000000     0          
O        O      0.500000000000     0.852700000000     0.795875000000     0          
O        O      0.703900000000     0.803200000000     0.829175000000     0          
O        O      0.546075000000     0.803200000000     0.829175000000     0          
O        O      0.562500000000     0.750000000000     0.875000000000     0          
T        Si     0.698575000000     0.935700000000     0.750000000000     0          
T        Si     0.625000000000     0.961900000000     0.820100000000     0          
T        Si     0.500000000000     0.814300000000     0.801425000000     0          
T        Si     0.570025000000     0.788100000000     0.875000000000     0          
O        O      0.579100000000     0.602700000000     0.750000000000     0          
O        O      0.545850000000     0.553200000000     0.796100000000     0          
O        O      0.625000000000     0.548600000000     0.750000000000     0          
O        O      0.545825000000     0.553200000000     0.953925000000     0          
O        O      0.500000000000     0.546300000000     0.875000000000     0          
O        O      0.500025000000     0.500000000000     0.812750000000     0          
O        O      0.625000000000     0.647300000000     0.795875000000     0          
O        O      0.578900000000     0.696800000000     0.829175000000     0          
O        O      0.625000000000     0.701400000000     0.750000000000     0          
O        O      0.671075000000     0.696800000000     0.829175000000     0          
O        O      0.500000000000     0.703800000000     0.875000000000     0          
T        Si     0.573575000000     0.564300000000     0.750000000000     0          
T        Si     0.500000000000     0.538100000000     0.820100000000     0          
T        Si     0.625000000000     0.685700000000     0.801425000000     0          
T        Si     0.695025000000     0.711900000000     0.875000000000     0          
T        Si     0.625000000000     0.625000000000     0.750000000000     0          
O        O      0.670900000000     0.602700000000     0.750000000000     0          
O        O      0.704150000000     0.553200000000     0.953900000000     0          
O        O      0.704175000000     0.553200000000     0.796075000000     0          
O        O      0.749975000000     0.500000000000     0.937250000000     0          
O        O      0.625000000000     0.647300000000     0.954125000000     0          
O        O      0.671100000000     0.696800000000     0.920825000000     0          
O        O      0.578925000000     0.696800000000     0.920825000000     0          
T        Si     0.676425000000     0.564300000000     0.750000000000     0          
T        Si     0.500000000000     0.538100000000     0.929900000000     0          
T        Si     0.625000000000     0.685700000000     0.948575000000     0          
T        Si     0.554975000000     0.711900000000     0.875000000000     0          
O        O      0.670900000000     0.397300000000     0.750000000000     0          
O        O      0.704150000000     0.446800000000     0.953900000000     0          
O        O      0.625000000000     0.451400000000     0.750000000000     0          
O        O      0.704175000000     0.446800000000     0.796075000000     0          
O        O      0.500000000000     0.453700000000     0.875000000000     0          
O        O      0.625000000000     0.352700000000     0.954125000000     0          
O        O      0.671100000000     0.303200000000     0.920825000000     0          
O        O      0.625000000000     0.298600000000     0.750000000000     0          
O        O      0.578925000000     0.303200000000     0.920825000000     0          
O        O      0.500000000000     0.296200000000     0.875000000000     0          
T        Si     0.676425000000     0.435700000000     0.750000000000     0          
T        Si     0.500000000000     0.461900000000     0.929900000000     0          
T        Si     0.625000000000     0.314300000000     0.948575000000     0          
T        Si     0.554975000000     0.288100000000     0.875000000000     0          
T        Si     0.625000000000     0.375000000000     0.750000000000     0          
O        O      0.579100000000     0.397300000000     0.750000000000     0          
O        O      0.545850000000     0.446800000000     0.796100000000     0          
O        O      0.545825000000     0.446800000000     0.953925000000     0          
O        O      0.625000000000     0.352700000000     0.795875000000     0          
O        O      0.578900000000     0.303200000000     0.829175000000     0          
O        O      0.671075000000     0.303200000000     0.829175000000     0          
T        Si     0.573575000000     0.435700000000     0.750000000000     0          
T        Si     0.500000000000     0.461900000000     0.820100000000     0          
T        Si     0.625000000000     0.314300000000     0.801425000000     0          
T        Si     0.695025000000     0.288100000000     0.875000000000     0          
O        O      0.954100000000     0.102700000000     0.000000000000     0          
O        O      0.920850000000     0.053200000000     0.046100000000     0          
O        O      0.750000000000     0.048600000000     0.000000000000     0          
O        O      0.920825000000     0.053200000000     0.203925000000     0          
O        O      0.875000000000     0.046300000000     0.125000000000     0          
O        O      0.875025000000     0.000000000000     0.062750000000     0          
O        O      0.750000000000     0.147300000000     0.045875000000     0          
O        O      0.953900000000     0.196800000000     0.079175000000     0          
O        O      0.750000000000     0.201400000000     0.000000000000     0          
O        O      0.796075000000     0.196800000000     0.079175000000     0          
O        O      0.875000000000     0.203800000000     0.125000000000     0          
O        O      0.812500000000     0.250000000000     0.125000000000     0          
T        Si     0.948575000000     0.064300000000     0.000000000000     0          
T        Si     0.875000000000     0.038100000000     0.070100000000     0          
T        Si     0.750000000000     0.185700000000     0.051425000000     0          
T        Si     0.820025000000     0.211900000000     0.125000000000     0          
T        Si     0.750000000000     0.125000000000     0.000000000000     0          
O        O      0.795900000000     0.102700000000     0.000000000000     0          
O        O      0.829150000000     0.053200000000     0.203900000000     0          
O        O      0.829175000000     0.053200000000     0.046075000000     0          
O        O      0.874975000000     0.000000000000     0.187250000000     0          
O        O      0.750000000000     0.147300000000     0.204125000000     0          
O        O      0.796100000000     0.196800000000     0.170825000000     0          
O        O      0.953925000000     0.196800000000     0.170825000000     0          
O        O      0.937500000000     0.250000000000     0.125000000000     0          
T        Si     0.801425000000     0.064300000000     0.000000000000     0          
T        Si     0.875000000000     0.038100000000     0.179900000000     0          
T        Si     0.750000000000     0.185700000000     0.198575000000     0          
T        Si     0.929975000000     0.211900000000     0.125000000000     0          
O        O      0.795900000000     0.897300000000     0.000000000000     0          
O        O      0.829150000000     0.946800000000     0.203900000000     0          
O        O      0.750000000000     0.951400000000     0.000000000000     0          
O        O      0.829175000000     0.946800000000     0.046075000000     0          
O        O      0.875000000000     0.953700000000     0.125000000000     0          
O        O      0.750000000000     0.852700000000     0.204125000000     0          
O        O      0.796100000000     0.803200000000     0.170825000000     0          
O        O      0.750000000000     0.798600000000     0.000000000000     0          
O        O      0.953925000000     0.803200000000     0.170825000000     0          
O        O      0.875000000000     0.796200000000     0.125000000000     0          
O        O      0.937500000000     0.750000000000     0.125000000000     0          
T        Si     0.801425000000     0.935700000000     0.000000000000     0          
T        Si     0.875000000000     0.961900000000     0.179900000000     0          
T        Si     0.750000000000     0.814300000000     0.198575000000     0          
T        Si     0.929975000000     0.788100000000     0.125000000000     0          
T        Si     0.750000000000     0.875000000000     0.000000000000     0          
O        O      0.954100000000     0.897300000000     0.000000000000     0          
O        O      0.920850000000     0.946800000000     0.046100000000     0          
O        O      0.920825000000     0.946800000000     0.203925000000     0          
O        O      0.750000000000     0.852700000000     0.045875000000     0          
O        O      0.953900000000     0.803200000000     0.079175000000     0          
O        O      0.796075000000     0.803200000000     0.079175000000     0          
O        O      0.812500000000     0.750000000000     0.125000000000     0          
T        Si     0.948575000000     0.935700000000     0.000000000000     0          
T        Si     0.875000000000     0.961900000000     0.070100000000     0          
T        Si     0.750000000000     0.814300000000     0.051425000000     0          
T        Si     0.820025000000     0.788100000000     0.125000000000     0          
O        O      0.829100000000     0.602700000000     0.000000000000     0          
O        O      0.795850000000     0.553200000000     0.046100000000     0          
O        O      0.875000000000     0.548600000000     0.000000000000     0          
O        O      0.795825000000     0.553200000000     0.203925000000     0          
O        O      0.750000000000     0.546300000000     0.125000000000     0          
O        O      0.750025000000     0.500000000000     0.062750000000     0          
O        O      0.875000000000     0.647300000000     0.045875000000     0          
O        O      0.828900000000     0.696800000000     0.079175000000     0          
O        O      0.875000000000     0.701400000000     0.000000000000     0          
O        O      0.921075000000     0.696800000000     0.079175000000     0          
O        O      0.750000000000     0.703800000000     0.125000000000     0          
T        Si     0.823575000000     0.564300000000     0.000000000000     0          
T        Si     0.750000000000     0.538100000000     0.070100000000     0          
T        Si     0.875000000000     0.685700000000     0.051425000000     0          
T        Si     0.945025000000     0.711900000000     0.125000000000     0          
T        Si     0.875000000000     0.625000000000     0.000000000000     0          
O        O      0.920900000000     0.602700000000     0.000000000000     0          
O        O      0.954150000000     0.553200000000     0.203900000000     0          
O        O      0.954175000000     0.553200000000     0.046075000000     0          
O        O      0.999975000000     0.500000000000     0.187250000000     0          
O        O      0.875000000000     0.647300000000     0.204125000000     0          
O        O      0.921100000000     0.696800000000     0.170825000000     0          
O        O      0.828925000000     0.696800000000     0.170825000000     0          
T        Si     0.926425000000     0.564300000000     0.000000000000     0          
T        Si     0.750000000000     0.538100000000     0.179900000000     0          
T        Si     0.875000000000     0.685700000000     0.198575000000     0          
T        Si     0.804975000000     0.711900000000     0.125000000000     0          
O        O      0.920900000000     0.397300000000     0.000000000000     0          
O        O      0.954150000000     0.446800000000     0.203900000000     0          
O        O      0.875000000000     0.451400000000     0.000000000000     0          
O        O      0.954175000000     0.446800000000     0.046075000000     0          
O        O      0.750000000000     0.453700000000     0.125000000000     0          
O        O      0.875000000000     0.352700000000     0.204125000000     0          
O        O      0.921100000000     0.303200000000     0.170825000000     0          
O        O      0.875000000000     0.298600000000     0.000000000000     0          
O        O      0.828925000000     0.303200000000     0.170825000000     0          
O        O      0.750000000000     0.296200000000     0.125000000000     0          
T        Si     0.926425000000     0.435700000000     0.000000000000     0          
T        Si     0.750000000000     0.461900000000     0.179900000000     0          
T        Si     0.875000000000     0.314300000000     0.198575000000     0          
T        Si     0.804975000000     0.288100000000     0.125000000000     0          
T        Si     0.875000000000     0.375000000000     0.000000000000     0          
O        O      0.829100000000     0.397300000000     0.000000000000     0          
O        O      0.795850000000     0.446800000000     0.046100000000     0          
O        O      0.795825000000     0.446800000000     0.203925000000     0          
O        O      0.875000000000     0.352700000000     0.045875000000     0          
O        O      0.828900000000     0.303200000000     0.079175000000     0          
O        O      0.921075000000     0.303200000000     0.079175000000     0          
T        Si     0.823575000000     0.435700000000     0.000000000000     0          
T        Si     0.750000000000     0.461900000000     0.070100000000     0          
T        Si     0.875000000000     0.314300000000     0.051425000000     0          
T        Si     0.945025000000     0.288100000000     0.125000000000     0          
O        O      0.954100000000     0.102700000000     0.250000000000     0          
O        O      0.920850000000     0.053200000000     0.296100000000     0          
O        O      0.750000000000     0.048600000000     0.250000000000     0          
O        O      0.920825000000     0.053200000000     0.453925000000     0          
O        O      0.875000000000     0.046300000000     0.375000000000     0          
O        O      0.875025000000     0.000000000000     0.312750000000     0          
O        O      0.750000000000     0.147300000000     0.295875000000     0          
O        O      0.953900000000     0.196800000000     0.329175000000     0          
O        O      0.750000000000     0.201400000000     0.250000000000     0          
O        O      0.796075000000     0.196800000000     0.329175000000     0          
O        O      0.875000000000     0.203800000000     0.375000000000     0          
O        O      0.812500000000     0.250000000000     0.375000000000     0          
T        Si     0.948575000000     0.064300000000     0.250000000000     0          
T        Si     0.875000000000     0.038100000000     0.320100000000     0          
T        Si     0.750000000000     0.185700000000     0.301425000000     0          
T        Si     0.820025000000     0.211900000000     0.375000000000     0          
T        Si     0.750000000000     0.125000000000     0.250000000000     0          
O        O      0.795900000000     0.102700000000     0.250000000000     0          
O        O      0.829150000000     0.053200000000     0.453900000000     0          
O        O      0.829175000000     0.053200000000     0.296075000000     0          
O        O      0.874975000000     0.000000000000     0.437250000000     0          
O        O      0.750000000000     0.147300000000     0.454125000000     0          
O        O      0.796100000000     0.196800000000     0.420825000000     0          
O        O      0.953925000000     0.196800000000     0.420825000000     0          
O        O      0.937500000000     0.250000000000     0.375000000000     0          
T        Si     0.801425000000     0.064300000000     0.250000000000     0          
T        Si     0.875000000000     0.038100000000     0.429900000000     0          
T        Si     0.750000000000     0.185700000000     0.448575000000     0          
T        Si     0.929975000000     0.211900000000     0.375000000000     0          
O        O      0.795900000000     0.897300000000     0.250000000000     0          
O        O      0.829150000000     0.946800000000     0.453900000000     0          
O        O      0.750000000000     0.951400000000     0.250000000000     0          
O        O      0.829175000000     0.946800000000     0.296075000000     0          
O        O      0.875000000000     0.953700000000     0.375000000000     0          
O        O      0.750000000000     0.852700000000     0.454125000000     0          
O        O      0.796100000000     0.803200000000     0.420825000000     0          
O        O      0.750000000000     0.798600000000     0.250000000000     0          
O        O      0.953925000000     0.803200000000     0.420825000000     0          
O        O      0.875000000000     0.796200000000     0.375000000000     0          
O        O      0.937500000000     0.750000000000     0.375000000000     0          
T        Si     0.801425000000     0.935700000000     0.250000000000     0          
T        Si     0.875000000000     0.961900000000     0.429900000000     0          
T        Si     0.750000000000     0.814300000000     0.448575000000     0          
T        Si     0.929975000000     0.788100000000     0.375000000000     0          
T        Si     0.750000000000     0.875000000000     0.250000000000     0          
O        O      0.954100000000     0.897300000000     0.250000000000     0          
O        O      0.920850000000     0.946800000000     0.296100000000     0          
O        O      0.920825000000     0.946800000000     0.453925000000     0          
O        O      0.750000000000     0.852700000000     0.295875000000     0          
O        O      0.953900000000     0.803200000000     0.329175000000     0          
O        O      0.796075000000     0.803200000000     0.329175000000     0          
O        O      0.812500000000     0.750000000000     0.375000000000     0          
T        Si     0.948575000000     0.935700000000     0.250000000000     0          
T        Si     0.875000000000     0.961900000000     0.320100000000     0          
T        Si     0.750000000000     0.814300000000     0.301425000000     0          
T        Si     0.820025000000     0.788100000000     0.375000000000     0          
O        O      0.829100000000     0.602700000000     0.250000000000     0          
O        O      0.795850000000     0.553200000000     0.296100000000     0          
O        O      0.875000000000     0.548600000000     0.250000000000     0          
O        O      0.795825000000     0.553200000000     0.453925000000     0          
O        O      0.750000000000     0.546300000000     0.375000000000     0          
O        O      0.750025000000     0.500000000000     0.312750000000     0          
O        O      0.875000000000     0.647300000000     0.295875000000     0          
O        O      0.828900000000     0.696800000000     0.329175000000     0          
O        O      0.875000000000     0.701400000000     0.250000000000     0          
O        O      0.921075000000     0.696800000000     0.329175000000     0          
O        O      0.750000000000     0.703800000000     0.375000000000     0          
T        Si     0.823575000000     0.564300000000     0.250000000000     0          
T        Si     0.750000000000     0.538100000000     0.320100000000     0          
T        Si     0.875000000000     0.685700000000     0.301425000000     0          
T        Si     0.945025000000     0.711900000000     0.375000000000     0          
T        Si     0.875000000000     0.625000000000     0.250000000000     0          
O        O      0.920900000000     0.602700000000     0.250000000000     0          
O        O      0.954150000000     0.553200000000     0.453900000000     0          
O        O      0.954175000000     0.553200000000     0.296075000000     0          
O        O      0.999975000000     0.500000000000     0.437250000000     0          
O        O      0.875000000000     0.647300000000     0.454125000000     0          
O        O      0.921100000000     0.696800000000     0.420825000000     0          
O        O      0.828925000000     0.696800000000     0.420825000000     0          
T        Si     0.926425000000     0.564300000000     0.250000000000     0          
T        Si     0.750000000000     0.538100000000     0.429900000000     0          
T        Si     0.875000000000     0.685700000000     0.448575000000     0          
T        Si     0.804975000000     0.711900000000     0.375000000000     0          
O        O      0.920900000000     0.397300000000     0.250000000000     0          
O        O      0.954150000000     0.446800000000     0.453900000000     0          
O        O      0.875000000000     0.451400000000     0.250000000000     0          
O        O      0.954175000000     0.446800000000     0.296075000000     0          
O        O      0.750000000000     0.453700000000     0.375000000000     0          
O        O      0.875000000000     0.352700000000     0.454125000000     0          
O        O      0.921100000000     0.303200000000     0.420825000000     0          
O        O      0.875000000000     0.298600000000     0.250000000000     0          
O        O      0.828925000000     0.303200000000     0.420825000000     0          
O        O      0.750000000000     0.296200000000     0.375000000000     0          
T        Si     0.926425000000     0.435700000000     0.250000000000     0          
T        Si     0.750000000000     0.461900000000     0.429900000000     0          
T        Si     0.875000000000     0.314300000000     0.448575000000     0          
T        Si     0.804975000000     0.288100000000     0.375000000000     0          
T        Si     0.875000000000     0.375000000000     0.250000000000     0          
O        O      0.829100000000     0.397300000000     0.250000000000     0          
O        O      0.795850000000     0.446800000000     0.296100000000     0          
O        O      0.795825000000     0.446800000000     0.453925000000     0          
O        O      0.875000000000     0.352700000000     0.295875000000     0          
O        O      0.828900000000     0.303200000000     0.329175000000     0          
O        O      0.921075000000     0.303200000000     0.329175000000     0          
T        Si     0.823575000000     0.435700000000     0.250000000000     0          
T        Si     0.750000000000     0.461900000000     0.320100000000     0          
T        Si     0.875000000000     0.314300000000     0.301425000000     0          
T        Si     0.945025000000     0.288100000000     0.375000000000     0          
O        O      0.954100000000     0.102700000000     0.500000000000     0          
O        O      0.920850000000     0.053200000000     0.546100000000     0          
O        O      0.750000000000     0.048600000000     0.500000000000     0          
O        O      0.920825000000     0.053200000000     0.703925000000     0          
O        O      0.875000000000     0.046300000000     0.625000000000     0          
O        O      0.875025000000     0.000000000000     0.562750000000     0          
O        O      0.750000000000     0.147300000000     0.545875000000     0          
O        O      0.953900000000     0.196800000000     0.579175000000     0          
O        O      0.750000000000     0.201400000000     0.500000000000     0          
O        O      0.796075000000     0.196800000000     0.579175000000     0          
O        O      0.875000000000     0.203800000000     0.625000000000     0          
O        O      0.812500000000     0.250000000000     0.625000000000     0          
T        Si     0.948575000000     0.064300000000     0.500000000000     0          
T        Si     0.875000000000     0.038100000000     0.570100000000     0          
T        Si     0.750000000000     0.185700000000     0.551425000000     0          
T        Si     0.820025000000     0.211900000000     0.625000000000     0          
T        Si     0.750000000000     0.125000000000     0.500000000000     0          
O        O      0.795900000000     0.102700000000     0.500000000000     0          
O        O      0.829150000000     0.053200000000     0.703900000000     0          
O        O      0.829175000000     0.053200000000     0.546075000000     0          
O        O      0.874975000000     0.000000000000     0.687250000000     0          
O        O      0.750000000000     0.147300000000     0.704125000000     0          
O        O      0.796100000000     0.196800000000     0.670825000000     0          
O        O      0.953925000000     0.196800000000     0.670825000000     0          
O        O      0.937500000000     0.250000000000     0.625000000000     0          
T        Si     0.801425000000     0.064300000000     0.500000000000     0          
T        Si     0.875000000000     0.038100000000     0.679900000000     0          
T        Si     0.750000000000     0.185700000000     0.698575000000     0          
T        Si     0.929975000000     0.211900000000     0.625000000000     0          
O        O      0.795900000000     0.897300000000     0.500000000000     0          
O        O      0.829150000000     0.946800000000     0.703900000000     0          
O        O      0.750000000000     0.951400000000     0.500000000000     0          
O        O      0.829175000000     0.946800000000     0.546075000000     0          
O        O      0.875000000000     0.953700000000     0.625000000000     0          
O        O      0.750000000000     0.852700000000     0.704125000000     0          
O        O      0.796100000000     0.803200000000     0.670825000000     0          
O        O      0.750000000000     0.798600000000     0.500000000000     0          
O        O      0.953925000000     0.803200000000     0.670825000000     0          
O        O      0.875000000000     0.796200000000     0.625000000000     0          
O        O      0.937500000000     0.750000000000     0.625000000000     0          
T        Si     0.801425000000     0.935700000000     0.500000000000     0          
T        Si     0.875000000000     0.961900000000     0.679900000000     0          
T        Si     0.750000000000     0.814300000000     0.698575000000     0          
T        Si     0.929975000000     0.788100000000     0.625000000000     0          
T        Si     0.750000000000     0.875000000000     0.500000000000     0          
O        O      0.954100000000     0.897300000000     0.500000000000     0          
O        O      0.920850000000     0.946800000000     0.546100000000     0          
O        O      0.920825000000     0.946800000000     0.703925000000     0          
O        O      0.750000000000     0.852700000000     0.545875000000     0          
O        O      0.953900000000     0.803200000000     0.579175000000     0          
O        O      0.796075000000     0.803200000000     0.579175000000     0          
O        O      0.812500000000     0.750000000000     0.625000000000     0          
T        Si     0.948575000000     0.935700000000     0.500000000000     0          
T        Si     0.875000000000     0.961900000000     0.570100000000     0          
T        Si     0.750000000000     0.814300000000     0.551425000000     0          
T        Si     0.820025000000     0.788100000000     0.625000000000     0          
O        O      0.829100000000     0.602700000000     0.500000000000     0          
O        O      0.795850000000     0.553200000000     0.546100000000     0          
O        O      0.875000000000     0.548600000000     0.500000000000     0          
O        O      0.795825000000     0.553200000000     0.703925000000     0          
O        O      0.750000000000     0.546300000000     0.625000000000     0          
O        O      0.750025000000     0.500000000000     0.562750000000     0          
O        O      0.875000000000     0.647300000000     0.545875000000     0          
O        O      0.828900000000     0.696800000000     0.579175000000     0          
O        O      0.875000000000     0.701400000000     0.500000000000     0          
O        O      0.921075000000     0.696800000000     0.579175000000     0          
O        O      0.750000000000     0.703800000000     0.625000000000     0          
T        Si     0.823575000000     0.564300000000     0.500000000000     0          
T        Si     0.750000000000     0.538100000000     0.570100000000     0          
T        Si     0.875000000000     0.685700000000     0.551425000000     0          
T        Si     0.945025000000     0.711900000000     0.625000000000     0          
T        Si     0.875000000000     0.625000000000     0.500000000000     0          
O        O      0.920900000000     0.602700000000     0.500000000000     0          
O        O      0.954150000000     0.553200000000     0.703900000000     0          
O        O      0.954175000000     0.553200000000     0.546075000000     0          
O        O      0.999975000000     0.500000000000     0.687250000000     0          
O        O      0.875000000000     0.647300000000     0.704125000000     0          
O        O      0.921100000000     0.696800000000     0.670825000000     0          
O        O      0.828925000000     0.696800000000     0.670825000000     0          
T        Si     0.926425000000     0.564300000000     0.500000000000     0          
T        Si     0.750000000000     0.538100000000     0.679900000000     0          
T        Si     0.875000000000     0.685700000000     0.698575000000     0          
T        Si     0.804975000000     0.711900000000     0.625000000000     0          
O        O      0.920900000000     0.397300000000     0.500000000000     0          
O        O      0.954150000000     0.446800000000     0.703900000000     0          
O        O      0.875000000000     0.451400000000     0.500000000000     0          
O        O      0.954175000000     0.446800000000     0.546075000000     0          
O        O      0.750000000000     0.453700000000     0.625000000000     0          
O        O      0.875000000000     0.352700000000     0.704125000000     0          
O        O      0.921100000000     0.303200000000     0.670825000000     0          
O        O      0.875000000000     0.298600000000     0.500000000000     0          
O        O      0.828925000000     0.303200000000     0.670825000000     0          
O        O      0.750000000000     0.296200000000     0.625000000000     0          
T        Si     0.926425000000     0.435700000000     0.500000000000     0          
T        Si     0.750000000000     0.461900000000     0.679900000000     0          
T        Si     0.875000000000     0.314300000000     0.698575000000     0          
T        Si     0.804975000000     0.288100000000     0.625000000000     0          
T        Si     0.875000000000     0.375000000000     0.500000000000     0          
O        O      0.829100000000     0.397300000000     0.500000000000     0          
O        O      0.795850000000     0.446800000000     0.546100000000     0          
O        O      0.795825000000     0.446800000000     0.703925000000     0          
O        O      0.875000000000     0.352700000000     0.545875000000     0          
O        O      0.828900000000     0.303200000000     0.579175000000     0          
O        O      0.921075000000     0.303200000000     0.579175000000     0          
T        Si     0.823575000000     0.435700000000     0.500000000000     0          
T        Si     0.750000000000     0.461900000000     0.570100000000     0          
T        Si     0.875000000000     0.314300000000     0.551425000000     0          
T        Si     0.945025000000     0.288100000000     0.625000000000     0          
O        O      0.954100000000     0.102700000000     0.750000000000     0          
O        O      0.920850000000     0.053200000000     0.796100000000     0          
O        O      0.750000000000     0.048600000000     0.750000000000     0          
O        O      0.920825000000     0.053200000000     0.953925000000     0          
O        O      0.875000000000     0.046300000000     0.875000000000     0          
O        O      0.875025000000     0.000000000000     0.812750000000     0          
O        O      0.750000000000     0.147300000000     0.795875000000     0          
O        O      0.953900000000     0.196800000000     0.829175000000     0          
O        O      0.750000000000     0.201400000000     0.750000000000     0          
O        O      0.796075000000     0.196800000000     0.829175000000     0          
O        O      0.875000000000     0.203800000000     0.875000000000     0          
O        O      0.812500000000     0.250000000000     0.875000000000     0          
T        Si     0.948575000000     0.064300000000     0.750000000000     0          
T        Si     0.875000000000     0.038100000000     0.820100000000     0          
T        Si     0.750000000000     0.185700000000     0.801425000000     0          
T        Si     0.820025000000     0.211900000000     0.875000000000     0          
T        Si     0.750000000000     0.125000000000     0.750000000000     0          
O        O      0.795900000000     0.102700000000     0.750000000000     0          
O        O      0.829150000000     0.053200000000     0.953900000000     0          
O        O      0.829175000000     0.053200000000     0.796075000000     0          
O        O      0.874975000000     0.000000000000     0.937250000000     0          
O        O      0.750000000000     0.147300000000     0.954125000000     0          
O        O      0.796100000000     0.196800000000     0.920825000000     0          
O        O      0.953925000000     0.196800000000     0.920825000000     0          
O        O      0.937500000000     0.250000000000     0.875000000000     0          
T        Si     0.801425000000     0.064300000000     0.750000000000     0          
T        Si     0.875000000000     0.038100000000     0.929900000000     0          
T        Si     0.750000000000     0.185700000000     0.948575000000     0          
T        Si     0.929975000000     0.211900000000     0.875000000000     0          
O        O      0.795900000000     0.897300000000     0.750000000000     0          
O        O      0.829150000000     0.946800000000     0.953900000000     0          
O        O      0.750000000000     0.951400000000     0.750000000000     0          
O        O      0.829175000000     0.946800000000     0.796075000000     0          
O        O      0.875000000000     0.953700000000     0.875000000000     0          
O        O      0.750000000000     0.852700000000     0.954125000000     0          
O        O      0.796100000000     0.803200000000     0.920825000000     0          
O        O      0.750000000000     0.798600000000     0.750000000000     0          
O        O      0.953925000000     0.803200000000     0.920825000000     0          
O        O      0.875000000000     0.796200000000     0.875000000000     0          
O        O      0.937500000000     0.750000000000     0.875000000000     0          
T        Si     0.801425000000     0.935700000000     0.750000000000     0          
T        Si     0.875000000000     0.961900000000     0.929900000000     0          
T        Si     0.750000000000     0.814300000000     0.948575000000     0          
T        Si     0.929975000000     0.788100000000     0.875000000000     0          
T        Si     0.750000000000     0.875000000000     0.750000000000     0          
O        O      0.954100000000     0.897300000000     0.750000000000     0          
O        O      0.920850000000     0.946800000000     0.796100000000     0          
O        O      0.920825000000     0.946800000000     0.953925000000     0          
O        O      0.750000000000     0.852700000000     0.795875000000     0          
O        O      0.953900000000     0.803200000000     0.829175000000     0          
O        O      0.796075000000     0.803200000000     0.829175000000     0          
O        O      0.812500000000     0.750000000000     0.875000000000     0          
T        Si     0.948575000000     0.935700000000     0.750000000000     0          
T        Si     0.875000000000     0.961900000000     0.820100000000     0          
T        Si     0.750000000000     0.814300000000     0.801425000000     0          
T        Si     0.820025000000     0.788100000000     0.875000000000     0          
O        O      0.829100000000     0.602700000000     0.750000000000     0          
O        O      0.795850000000     0.553200000000     0.796100000000     0          
O        O      0.875000000000     0.548600000000     0.750000000000     0          
O        O      0.795825000000     0.553200000000     0.953925000000     0          
O        O      0.750000000000     0.546300000000     0.875000000000     0          
O        O      0.750025000000     0.500000000000     0.812750000000     0          
O        O      0.875000000000     0.647300000000     0.795875000000     0          
O        O      0.828900000000     0.696800000000     0.829175000000     0          
O        O      0.875000000000     0.701400000000     0.750000000000     0          
O        O      0.921075000000     0.696800000000     0.829175000000     0          
O        O      0.750000000000     0.703800000000     0.875000000000     0          
T        Si     0.823575000000     0.564300000000     0.750000000000     0          
T        Si     0.750000000000     0.538100000000     0.820100000000     0          
T        Si     0.875000000000     0.685700000000     0.801425000000     0          
T        Si     0.945025000000     0.711900000000     0.875000000000     0          
T        Si     0.875000000000     0.625000000000     0.750000000000     0          
O        O      0.920900000000     0.602700000000     0.750000000000     0          
O        O      0.954150000000     0.553200000000     0.953900000000     0          
O        O      0.954175000000     0.553200000000     0.796075000000     0          
O        O      0.999975000000     0.500000000000     0.937250000000     0          
O        O      0.875000000000     0.647300000000     0.954125000000     0          
O        O      0.921100000000     0.696800000000     0.920825000000     0          
O        O      0.828925000000     0.696800000000     0.920825000000     0          
T        Si     0.926425000000     0.564300000000     0.750000000000     0          
T        Si     0.750000000000     0.538100000000     0.929900000000     0          
T        Si     0.875000000000     0.685700000000     0.948575000000     0          
T        Si     0.804975000000     0.711900000000     0.875000000000     0          
O        O      0.920900000000     0.397300000000     0.750000000000     0          
O        O      0.954150000000     0.446800000000     0.953900000000     0          
O        O      0.875000000000     0.451400000000     0.750000000000     0          
O        O      0.954175000000     0.446800000000     0.796075000000     0          
O        O      0.750000000000     0.453700000000     0.875000000000     0          
O        O      0.875000000000     0.352700000000     0.954125000000     0          
O        O      0.921100000000     0.303200000000     0.920825000000     0          
O        O      0.875000000000     0.298600000000     0.750000000000     0          
O        O      0.828925000000     0.303200000000     0.920825000000     0          
O        O      0.750000000000     0.296200000000     0.875000000000     0          
T        Si     0.926425000000     0.435700000000     0.750000000000     0          
T        Si     0.750000000000     0.461900000000     0.929900000000     0          
T        Si     0.875000000000     0.314300000000     0.948575000000     0          
T        Si     0.804975000000     0.288100000000     0.875000000000     0          
T        Si     0.875000000000     0.375000000000     0.750000000000     0          
O        O      0.829100000000     0.397300000000     0.750000000000     0          
O        O      0.795850000000     0.446800000000     0.796100000000     0          
O        O      0.795825000000     0.446800000000     0.953925000000     0          
O        O      0.875000000000     0.352700000000     0.795875000000     0          
O        O      0.828900000000     0.303200000000     0.829175000000     0          
O        O      0.921075000000     0.303200000000     0.829175000000     0          
T        Si     0.823575000000     0.435700000000     0.750000000000     0          
T        Si     0.750000000000     0.461900000000     0.820100000000     0          
T        Si     0.875000000000     0.314300000000     0.801425000000     0          
T        Si     0.945025000000     0.288100000000     0.875000000000     0          


