data_zeolite

_audit_creation_method RASPA-1.0
_audit_creation_date 2021-6-6
_audit_author_name ''

_cell_length_a    15.1512
_cell_length_b    15.1512
_cell_length_c    11.848
_cell_angle_alpha 90
_cell_angle_beta  90
_cell_angle_gamma 90
_cell_volume      32637.6

_symmetry_cell_setting          tetragonal
_symmetry_space_group_name_Hall 'P 1'
_symmetry_space_group_name_H-M  'P 1'
_symmetry_Int_Tables_number     1

_symmetry_equiv_pos_as_xyz 'x,y,z'

loop_
_atom_site_label
_atom_site_type_symbol
_atom_site_fract_x
_atom_site_fract_y
_atom_site_fract_z
_atom_site_charge
T        Si     0.045535000000     0.366005000000     0.062496666667     0          
T        Si     0.011600000000     0.428960000000     0.122760000000     0          
T        Si     0.015435000000     0.159705000000     0.000000000000     0          
T        Si     0.084865000000     0.090380000000     0.000000000000     0          
T        Si     0.133995000000     0.045535000000     0.062496666667     0          
T        Si     0.071040000000     0.011600000000     0.122760000000     0          
T        Si     0.340295000000     0.015435000000     0.000000000000     0          
T        Si     0.409620000000     0.084865000000     0.000000000000     0          
T        Si     0.454465000000     0.133995000000     0.062496666667     0          
T        Si     0.488400000000     0.071040000000     0.122760000000     0          
T        Si     0.484565000000     0.340295000000     0.000000000000     0          
T        Si     0.415135000000     0.409620000000     0.000000000000     0          
T        Si     0.366005000000     0.454465000000     0.062496666667     0          
T        Si     0.428960000000     0.488400000000     0.122760000000     0          
T        Si     0.159705000000     0.484565000000     0.000000000000     0          
T        Si     0.090380000000     0.415135000000     0.000000000000     0          
T        Si     0.295535000000     0.383995000000     0.270836666667     0          
T        Si     0.261600000000     0.321040000000     0.210573333333     0          
T        Si     0.265435000000     0.090295000000     0.000000000000     0          
T        Si     0.334865000000     0.159620000000     0.000000000000     0          
T        Si     0.116005000000     0.295535000000     0.270836666667     0          
T        Si     0.178960000000     0.261600000000     0.210573333333     0          
T        Si     0.409705000000     0.265435000000     0.000000000000     0          
T        Si     0.340380000000     0.334865000000     0.000000000000     0          
T        Si     0.204465000000     0.116005000000     0.270836666667     0          
T        Si     0.238400000000     0.178960000000     0.210573333333     0          
T        Si     0.234565000000     0.409705000000     0.000000000000     0          
T        Si     0.165135000000     0.340380000000     0.000000000000     0          
T        Si     0.383995000000     0.204465000000     0.270836666667     0          
T        Si     0.321040000000     0.238400000000     0.210573333333     0          
T        Si     0.090295000000     0.234565000000     0.000000000000     0          
T        Si     0.159620000000     0.165135000000     0.000000000000     0          
T        Si     0.454465000000     0.133995000000     0.270836666667     0          
T        Si     0.488400000000     0.071040000000     0.210573333333     0          
T        Si     0.366005000000     0.454465000000     0.270836666667     0          
T        Si     0.428960000000     0.488400000000     0.210573333333     0          
T        Si     0.045535000000     0.366005000000     0.270836666667     0          
T        Si     0.011600000000     0.428960000000     0.210573333333     0          
T        Si     0.133995000000     0.045535000000     0.270836666667     0          
T        Si     0.071040000000     0.011600000000     0.210573333333     0          
T        Si     0.204465000000     0.116005000000     0.062496666667     0          
T        Si     0.238400000000     0.178960000000     0.122760000000     0          
T        Si     0.383995000000     0.204465000000     0.062496666667     0          
T        Si     0.321040000000     0.238400000000     0.122760000000     0          
T        Si     0.295535000000     0.383995000000     0.062496666667     0          
T        Si     0.261600000000     0.321040000000     0.122760000000     0          
T        Si     0.116005000000     0.295535000000     0.062496666667     0          
T        Si     0.178960000000     0.261600000000     0.122760000000     0          
T        Si     0.045535000000     0.366005000000     0.395830000000     0          
T        Si     0.011600000000     0.428960000000     0.456093333333     0          
T        Si     0.015435000000     0.159705000000     0.333333333333     0          
T        Si     0.084865000000     0.090380000000     0.333333333333     0          
T        Si     0.133995000000     0.045535000000     0.395830000000     0          
T        Si     0.071040000000     0.011600000000     0.456093333333     0          
T        Si     0.340295000000     0.015435000000     0.333333333333     0          
T        Si     0.409620000000     0.084865000000     0.333333333333     0          
T        Si     0.454465000000     0.133995000000     0.395830000000     0          
T        Si     0.488400000000     0.071040000000     0.456093333333     0          
T        Si     0.484565000000     0.340295000000     0.333333333333     0          
T        Si     0.415135000000     0.409620000000     0.333333333333     0          
T        Si     0.366005000000     0.454465000000     0.395830000000     0          
T        Si     0.428960000000     0.488400000000     0.456093333333     0          
T        Si     0.159705000000     0.484565000000     0.333333333333     0          
T        Si     0.090380000000     0.415135000000     0.333333333333     0          
T        Si     0.295535000000     0.383995000000     0.604170000000     0          
T        Si     0.261600000000     0.321040000000     0.543906666667     0          
T        Si     0.265435000000     0.090295000000     0.333333333333     0          
T        Si     0.334865000000     0.159620000000     0.333333333333     0          
T        Si     0.116005000000     0.295535000000     0.604170000000     0          
T        Si     0.178960000000     0.261600000000     0.543906666667     0          
T        Si     0.409705000000     0.265435000000     0.333333333333     0          
T        Si     0.340380000000     0.334865000000     0.333333333333     0          
T        Si     0.204465000000     0.116005000000     0.604170000000     0          
T        Si     0.238400000000     0.178960000000     0.543906666667     0          
T        Si     0.234565000000     0.409705000000     0.333333333333     0          
T        Si     0.165135000000     0.340380000000     0.333333333333     0          
T        Si     0.383995000000     0.204465000000     0.604170000000     0          
T        Si     0.321040000000     0.238400000000     0.543906666667     0          
T        Si     0.090295000000     0.234565000000     0.333333333333     0          
T        Si     0.159620000000     0.165135000000     0.333333333333     0          
T        Si     0.454465000000     0.133995000000     0.604170000000     0          
T        Si     0.488400000000     0.071040000000     0.543906666667     0          
T        Si     0.366005000000     0.454465000000     0.604170000000     0          
T        Si     0.428960000000     0.488400000000     0.543906666667     0          
T        Si     0.045535000000     0.366005000000     0.604170000000     0          
T        Si     0.011600000000     0.428960000000     0.543906666667     0          
T        Si     0.133995000000     0.045535000000     0.604170000000     0          
T        Si     0.071040000000     0.011600000000     0.543906666667     0          
T        Si     0.204465000000     0.116005000000     0.395830000000     0          
T        Si     0.238400000000     0.178960000000     0.456093333333     0          
T        Si     0.383995000000     0.204465000000     0.395830000000     0          
T        Si     0.321040000000     0.238400000000     0.456093333333     0          
T        Si     0.295535000000     0.383995000000     0.395830000000     0          
T        Si     0.261600000000     0.321040000000     0.456093333333     0          
T        Si     0.116005000000     0.295535000000     0.395830000000     0          
T        Si     0.178960000000     0.261600000000     0.456093333333     0          
T        Si     0.045535000000     0.366005000000     0.729163333333     0          
T        Si     0.011600000000     0.428960000000     0.789426666667     0          
T        Si     0.015435000000     0.159705000000     0.666666666667     0          
T        Si     0.084865000000     0.090380000000     0.666666666667     0          
T        Si     0.133995000000     0.045535000000     0.729163333333     0          
T        Si     0.071040000000     0.011600000000     0.789426666667     0          
T        Si     0.340295000000     0.015435000000     0.666666666667     0          
T        Si     0.409620000000     0.084865000000     0.666666666667     0          
T        Si     0.454465000000     0.133995000000     0.729163333333     0          
T        Si     0.488400000000     0.071040000000     0.789426666667     0          
T        Si     0.484565000000     0.340295000000     0.666666666667     0          
T        Si     0.415135000000     0.409620000000     0.666666666667     0          
T        Si     0.366005000000     0.454465000000     0.729163333333     0          
T        Si     0.428960000000     0.488400000000     0.789426666667     0          
T        Si     0.159705000000     0.484565000000     0.666666666667     0          
T        Si     0.090380000000     0.415135000000     0.666666666667     0          
T        Si     0.295535000000     0.383995000000     0.937503333333     0          
T        Si     0.261600000000     0.321040000000     0.877240000000     0          
T        Si     0.265435000000     0.090295000000     0.666666666667     0          
T        Si     0.334865000000     0.159620000000     0.666666666667     0          
T        Si     0.116005000000     0.295535000000     0.937503333333     0          
T        Si     0.178960000000     0.261600000000     0.877240000000     0          
T        Si     0.409705000000     0.265435000000     0.666666666667     0          
T        Si     0.340380000000     0.334865000000     0.666666666667     0          
T        Si     0.204465000000     0.116005000000     0.937503333333     0          
T        Si     0.238400000000     0.178960000000     0.877240000000     0          
T        Si     0.234565000000     0.409705000000     0.666666666667     0          
T        Si     0.165135000000     0.340380000000     0.666666666667     0          
T        Si     0.383995000000     0.204465000000     0.937503333333     0          
T        Si     0.321040000000     0.238400000000     0.877240000000     0          
T        Si     0.090295000000     0.234565000000     0.666666666667     0          
T        Si     0.159620000000     0.165135000000     0.666666666667     0          
T        Si     0.454465000000     0.133995000000     0.937503333333     0          
T        Si     0.488400000000     0.071040000000     0.877240000000     0          
T        Si     0.366005000000     0.454465000000     0.937503333333     0          
T        Si     0.428960000000     0.488400000000     0.877240000000     0          
T        Si     0.045535000000     0.366005000000     0.937503333333     0          
T        Si     0.011600000000     0.428960000000     0.877240000000     0          
T        Si     0.133995000000     0.045535000000     0.937503333333     0          
T        Si     0.071040000000     0.011600000000     0.877240000000     0          
T        Si     0.204465000000     0.116005000000     0.729163333333     0          
T        Si     0.238400000000     0.178960000000     0.789426666667     0          
T        Si     0.383995000000     0.204465000000     0.729163333333     0          
T        Si     0.321040000000     0.238400000000     0.789426666667     0          
T        Si     0.295535000000     0.383995000000     0.729163333333     0          
T        Si     0.261600000000     0.321040000000     0.789426666667     0          
T        Si     0.116005000000     0.295535000000     0.729163333333     0          
T        Si     0.178960000000     0.261600000000     0.789426666667     0          
T        Si     0.045535000000     0.866005000000     0.062496666667     0          
T        Si     0.011600000000     0.928960000000     0.122760000000     0          
T        Si     0.015435000000     0.659705000000     0.000000000000     0          
T        Si     0.084865000000     0.590380000000     0.000000000000     0          
T        Si     0.133995000000     0.545535000000     0.062496666667     0          
T        Si     0.071040000000     0.511600000000     0.122760000000     0          
T        Si     0.340295000000     0.515435000000     0.000000000000     0          
T        Si     0.409620000000     0.584865000000     0.000000000000     0          
T        Si     0.454465000000     0.633995000000     0.062496666667     0          
T        Si     0.488400000000     0.571040000000     0.122760000000     0          
T        Si     0.484565000000     0.840295000000     0.000000000000     0          
T        Si     0.415135000000     0.909620000000     0.000000000000     0          
T        Si     0.366005000000     0.954465000000     0.062496666667     0          
T        Si     0.428960000000     0.988400000000     0.122760000000     0          
T        Si     0.159705000000     0.984565000000     0.000000000000     0          
T        Si     0.090380000000     0.915135000000     0.000000000000     0          
T        Si     0.295535000000     0.883995000000     0.270836666667     0          
T        Si     0.261600000000     0.821040000000     0.210573333333     0          
T        Si     0.265435000000     0.590295000000     0.000000000000     0          
T        Si     0.334865000000     0.659620000000     0.000000000000     0          
T        Si     0.116005000000     0.795535000000     0.270836666667     0          
T        Si     0.178960000000     0.761600000000     0.210573333333     0          
T        Si     0.409705000000     0.765435000000     0.000000000000     0          
T        Si     0.340380000000     0.834865000000     0.000000000000     0          
T        Si     0.204465000000     0.616005000000     0.270836666667     0          
T        Si     0.238400000000     0.678960000000     0.210573333333     0          
T        Si     0.234565000000     0.909705000000     0.000000000000     0          
T        Si     0.165135000000     0.840380000000     0.000000000000     0          
T        Si     0.383995000000     0.704465000000     0.270836666667     0          
T        Si     0.321040000000     0.738400000000     0.210573333333     0          
T        Si     0.090295000000     0.734565000000     0.000000000000     0          
T        Si     0.159620000000     0.665135000000     0.000000000000     0          
T        Si     0.454465000000     0.633995000000     0.270836666667     0          
T        Si     0.488400000000     0.571040000000     0.210573333333     0          
T        Si     0.366005000000     0.954465000000     0.270836666667     0          
T        Si     0.428960000000     0.988400000000     0.210573333333     0          
T        Si     0.045535000000     0.866005000000     0.270836666667     0          
T        Si     0.011600000000     0.928960000000     0.210573333333     0          
T        Si     0.133995000000     0.545535000000     0.270836666667     0          
T        Si     0.071040000000     0.511600000000     0.210573333333     0          
T        Si     0.204465000000     0.616005000000     0.062496666667     0          
T        Si     0.238400000000     0.678960000000     0.122760000000     0          
T        Si     0.383995000000     0.704465000000     0.062496666667     0          
T        Si     0.321040000000     0.738400000000     0.122760000000     0          
T        Si     0.295535000000     0.883995000000     0.062496666667     0          
T        Si     0.261600000000     0.821040000000     0.122760000000     0          
T        Si     0.116005000000     0.795535000000     0.062496666667     0          
T        Si     0.178960000000     0.761600000000     0.122760000000     0          
T        Si     0.045535000000     0.866005000000     0.395830000000     0          
T        Si     0.011600000000     0.928960000000     0.456093333333     0          
T        Si     0.015435000000     0.659705000000     0.333333333333     0          
T        Si     0.084865000000     0.590380000000     0.333333333333     0          
T        Si     0.133995000000     0.545535000000     0.395830000000     0          
T        Si     0.071040000000     0.511600000000     0.456093333333     0          
T        Si     0.340295000000     0.515435000000     0.333333333333     0          
T        Si     0.409620000000     0.584865000000     0.333333333333     0          
T        Si     0.454465000000     0.633995000000     0.395830000000     0          
T        Si     0.488400000000     0.571040000000     0.456093333333     0          
T        Si     0.484565000000     0.840295000000     0.333333333333     0          
T        Si     0.415135000000     0.909620000000     0.333333333333     0          
T        Si     0.366005000000     0.954465000000     0.395830000000     0          
T        Si     0.428960000000     0.988400000000     0.456093333333     0          
T        Si     0.159705000000     0.984565000000     0.333333333333     0          
T        Si     0.090380000000     0.915135000000     0.333333333333     0          
T        Si     0.295535000000     0.883995000000     0.604170000000     0          
T        Si     0.261600000000     0.821040000000     0.543906666667     0          
T        Si     0.265435000000     0.590295000000     0.333333333333     0          
T        Si     0.334865000000     0.659620000000     0.333333333333     0          
T        Si     0.116005000000     0.795535000000     0.604170000000     0          
T        Si     0.178960000000     0.761600000000     0.543906666667     0          
T        Si     0.409705000000     0.765435000000     0.333333333333     0          
T        Si     0.340380000000     0.834865000000     0.333333333333     0          
T        Si     0.204465000000     0.616005000000     0.604170000000     0          
T        Si     0.238400000000     0.678960000000     0.543906666667     0          
T        Si     0.234565000000     0.909705000000     0.333333333333     0          
T        Si     0.165135000000     0.840380000000     0.333333333333     0          
T        Si     0.383995000000     0.704465000000     0.604170000000     0          
T        Si     0.321040000000     0.738400000000     0.543906666667     0          
T        Si     0.090295000000     0.734565000000     0.333333333333     0          
T        Si     0.159620000000     0.665135000000     0.333333333333     0          
T        Si     0.454465000000     0.633995000000     0.604170000000     0          
T        Si     0.488400000000     0.571040000000     0.543906666667     0          
T        Si     0.366005000000     0.954465000000     0.604170000000     0          
T        Si     0.428960000000     0.988400000000     0.543906666667     0          
T        Si     0.045535000000     0.866005000000     0.604170000000     0          
T        Si     0.011600000000     0.928960000000     0.543906666667     0          
T        Si     0.133995000000     0.545535000000     0.604170000000     0          
T        Si     0.071040000000     0.511600000000     0.543906666667     0          
T        Si     0.204465000000     0.616005000000     0.395830000000     0          
T        Si     0.238400000000     0.678960000000     0.456093333333     0          
T        Si     0.383995000000     0.704465000000     0.395830000000     0          
T        Si     0.321040000000     0.738400000000     0.456093333333     0          
T        Si     0.295535000000     0.883995000000     0.395830000000     0          
T        Si     0.261600000000     0.821040000000     0.456093333333     0          
T        Si     0.116005000000     0.795535000000     0.395830000000     0          
T        Si     0.178960000000     0.761600000000     0.456093333333     0          
T        Si     0.045535000000     0.866005000000     0.729163333333     0          
T        Si     0.011600000000     0.928960000000     0.789426666667     0          
T        Si     0.015435000000     0.659705000000     0.666666666667     0          
T        Si     0.084865000000     0.590380000000     0.666666666667     0          
T        Si     0.133995000000     0.545535000000     0.729163333333     0          
T        Si     0.071040000000     0.511600000000     0.789426666667     0          
T        Si     0.340295000000     0.515435000000     0.666666666667     0          
T        Si     0.409620000000     0.584865000000     0.666666666667     0          
T        Si     0.454465000000     0.633995000000     0.729163333333     0          
T        Si     0.488400000000     0.571040000000     0.789426666667     0          
T        Si     0.484565000000     0.840295000000     0.666666666667     0          
T        Si     0.415135000000     0.909620000000     0.666666666667     0          
T        Si     0.366005000000     0.954465000000     0.729163333333     0          
T        Si     0.428960000000     0.988400000000     0.789426666667     0          
T        Si     0.159705000000     0.984565000000     0.666666666667     0          
T        Si     0.090380000000     0.915135000000     0.666666666667     0          
T        Si     0.295535000000     0.883995000000     0.937503333333     0          
T        Si     0.261600000000     0.821040000000     0.877240000000     0          
T        Si     0.265435000000     0.590295000000     0.666666666667     0          
T        Si     0.334865000000     0.659620000000     0.666666666667     0          
T        Si     0.116005000000     0.795535000000     0.937503333333     0          
T        Si     0.178960000000     0.761600000000     0.877240000000     0          
T        Si     0.409705000000     0.765435000000     0.666666666667     0          
T        Si     0.340380000000     0.834865000000     0.666666666667     0          
T        Si     0.204465000000     0.616005000000     0.937503333333     0          
T        Si     0.238400000000     0.678960000000     0.877240000000     0          
T        Si     0.234565000000     0.909705000000     0.666666666667     0          
T        Si     0.165135000000     0.840380000000     0.666666666667     0          
T        Si     0.383995000000     0.704465000000     0.937503333333     0          
T        Si     0.321040000000     0.738400000000     0.877240000000     0          
T        Si     0.090295000000     0.734565000000     0.666666666667     0          
T        Si     0.159620000000     0.665135000000     0.666666666667     0          
T        Si     0.454465000000     0.633995000000     0.937503333333     0          
T        Si     0.488400000000     0.571040000000     0.877240000000     0          
T        Si     0.366005000000     0.954465000000     0.937503333333     0          
T        Si     0.428960000000     0.988400000000     0.877240000000     0          
T        Si     0.045535000000     0.866005000000     0.937503333333     0          
T        Si     0.011600000000     0.928960000000     0.877240000000     0          
T        Si     0.133995000000     0.545535000000     0.937503333333     0          
T        Si     0.071040000000     0.511600000000     0.877240000000     0          
T        Si     0.204465000000     0.616005000000     0.729163333333     0          
T        Si     0.238400000000     0.678960000000     0.789426666667     0          
T        Si     0.383995000000     0.704465000000     0.729163333333     0          
T        Si     0.321040000000     0.738400000000     0.789426666667     0          
T        Si     0.295535000000     0.883995000000     0.729163333333     0          
T        Si     0.261600000000     0.821040000000     0.789426666667     0          
T        Si     0.116005000000     0.795535000000     0.729163333333     0          
T        Si     0.178960000000     0.761600000000     0.789426666667     0          
T        Si     0.545535000000     0.366005000000     0.062496666667     0          
T        Si     0.511600000000     0.428960000000     0.122760000000     0          
T        Si     0.515435000000     0.159705000000     0.000000000000     0          
T        Si     0.584865000000     0.090380000000     0.000000000000     0          
T        Si     0.633995000000     0.045535000000     0.062496666667     0          
T        Si     0.571040000000     0.011600000000     0.122760000000     0          
T        Si     0.840295000000     0.015435000000     0.000000000000     0          
T        Si     0.909620000000     0.084865000000     0.000000000000     0          
T        Si     0.954465000000     0.133995000000     0.062496666667     0          
T        Si     0.988400000000     0.071040000000     0.122760000000     0          
T        Si     0.984565000000     0.340295000000     0.000000000000     0          
T        Si     0.915135000000     0.409620000000     0.000000000000     0          
T        Si     0.866005000000     0.454465000000     0.062496666667     0          
T        Si     0.928960000000     0.488400000000     0.122760000000     0          
T        Si     0.659705000000     0.484565000000     0.000000000000     0          
T        Si     0.590380000000     0.415135000000     0.000000000000     0          
T        Si     0.795535000000     0.383995000000     0.270836666667     0          
T        Si     0.761600000000     0.321040000000     0.210573333333     0          
T        Si     0.765435000000     0.090295000000     0.000000000000     0          
T        Si     0.834865000000     0.159620000000     0.000000000000     0          
T        Si     0.616005000000     0.295535000000     0.270836666667     0          
T        Si     0.678960000000     0.261600000000     0.210573333333     0          
T        Si     0.909705000000     0.265435000000     0.000000000000     0          
T        Si     0.840380000000     0.334865000000     0.000000000000     0          
T        Si     0.704465000000     0.116005000000     0.270836666667     0          
T        Si     0.738400000000     0.178960000000     0.210573333333     0          
T        Si     0.734565000000     0.409705000000     0.000000000000     0          
T        Si     0.665135000000     0.340380000000     0.000000000000     0          
T        Si     0.883995000000     0.204465000000     0.270836666667     0          
T        Si     0.821040000000     0.238400000000     0.210573333333     0          
T        Si     0.590295000000     0.234565000000     0.000000000000     0          
T        Si     0.659620000000     0.165135000000     0.000000000000     0          
T        Si     0.954465000000     0.133995000000     0.270836666667     0          
T        Si     0.988400000000     0.071040000000     0.210573333333     0          
T        Si     0.866005000000     0.454465000000     0.270836666667     0          
T        Si     0.928960000000     0.488400000000     0.210573333333     0          
T        Si     0.545535000000     0.366005000000     0.270836666667     0          
T        Si     0.511600000000     0.428960000000     0.210573333333     0          
T        Si     0.633995000000     0.045535000000     0.270836666667     0          
T        Si     0.571040000000     0.011600000000     0.210573333333     0          
T        Si     0.704465000000     0.116005000000     0.062496666667     0          
T        Si     0.738400000000     0.178960000000     0.122760000000     0          
T        Si     0.883995000000     0.204465000000     0.062496666667     0          
T        Si     0.821040000000     0.238400000000     0.122760000000     0          
T        Si     0.795535000000     0.383995000000     0.062496666667     0          
T        Si     0.761600000000     0.321040000000     0.122760000000     0          
T        Si     0.616005000000     0.295535000000     0.062496666667     0          
T        Si     0.678960000000     0.261600000000     0.122760000000     0          
T        Si     0.545535000000     0.366005000000     0.395830000000     0          
T        Si     0.511600000000     0.428960000000     0.456093333333     0          
T        Si     0.515435000000     0.159705000000     0.333333333333     0          
T        Si     0.584865000000     0.090380000000     0.333333333333     0          
T        Si     0.633995000000     0.045535000000     0.395830000000     0          
T        Si     0.571040000000     0.011600000000     0.456093333333     0          
T        Si     0.840295000000     0.015435000000     0.333333333333     0          
T        Si     0.909620000000     0.084865000000     0.333333333333     0          
T        Si     0.954465000000     0.133995000000     0.395830000000     0          
T        Si     0.988400000000     0.071040000000     0.456093333333     0          
T        Si     0.984565000000     0.340295000000     0.333333333333     0          
T        Si     0.915135000000     0.409620000000     0.333333333333     0          
T        Si     0.866005000000     0.454465000000     0.395830000000     0          
T        Si     0.928960000000     0.488400000000     0.456093333333     0          
T        Si     0.659705000000     0.484565000000     0.333333333333     0          
T        Si     0.590380000000     0.415135000000     0.333333333333     0          
T        Si     0.795535000000     0.383995000000     0.604170000000     0          
T        Si     0.761600000000     0.321040000000     0.543906666667     0          
T        Si     0.765435000000     0.090295000000     0.333333333333     0          
T        Si     0.834865000000     0.159620000000     0.333333333333     0          
T        Si     0.616005000000     0.295535000000     0.604170000000     0          
T        Si     0.678960000000     0.261600000000     0.543906666667     0          
T        Si     0.909705000000     0.265435000000     0.333333333333     0          
T        Si     0.840380000000     0.334865000000     0.333333333333     0          
T        Si     0.704465000000     0.116005000000     0.604170000000     0          
T        Si     0.738400000000     0.178960000000     0.543906666667     0          
T        Si     0.734565000000     0.409705000000     0.333333333333     0          
T        Si     0.665135000000     0.340380000000     0.333333333333     0          
T        Si     0.883995000000     0.204465000000     0.604170000000     0          
T        Si     0.821040000000     0.238400000000     0.543906666667     0          
T        Si     0.590295000000     0.234565000000     0.333333333333     0          
T        Si     0.659620000000     0.165135000000     0.333333333333     0          
T        Si     0.954465000000     0.133995000000     0.604170000000     0          
T        Si     0.988400000000     0.071040000000     0.543906666667     0          
T        Si     0.866005000000     0.454465000000     0.604170000000     0          
T        Si     0.928960000000     0.488400000000     0.543906666667     0          
T        Si     0.545535000000     0.366005000000     0.604170000000     0          
T        Si     0.511600000000     0.428960000000     0.543906666667     0          
T        Si     0.633995000000     0.045535000000     0.604170000000     0          
T        Si     0.571040000000     0.011600000000     0.543906666667     0          
T        Si     0.704465000000     0.116005000000     0.395830000000     0          
T        Si     0.738400000000     0.178960000000     0.456093333333     0          
T        Si     0.883995000000     0.204465000000     0.395830000000     0          
T        Si     0.821040000000     0.238400000000     0.456093333333     0          
T        Si     0.795535000000     0.383995000000     0.395830000000     0          
T        Si     0.761600000000     0.321040000000     0.456093333333     0          
T        Si     0.616005000000     0.295535000000     0.395830000000     0          
T        Si     0.678960000000     0.261600000000     0.456093333333     0          
T        Si     0.545535000000     0.366005000000     0.729163333333     0          
T        Si     0.511600000000     0.428960000000     0.789426666667     0          
T        Si     0.515435000000     0.159705000000     0.666666666667     0          
T        Si     0.584865000000     0.090380000000     0.666666666667     0          
T        Si     0.633995000000     0.045535000000     0.729163333333     0          
T        Si     0.571040000000     0.011600000000     0.789426666667     0          
T        Si     0.840295000000     0.015435000000     0.666666666667     0          
T        Si     0.909620000000     0.084865000000     0.666666666667     0          
T        Si     0.954465000000     0.133995000000     0.729163333333     0          
T        Si     0.988400000000     0.071040000000     0.789426666667     0          
T        Si     0.984565000000     0.340295000000     0.666666666667     0          
T        Si     0.915135000000     0.409620000000     0.666666666667     0          
T        Si     0.866005000000     0.454465000000     0.729163333333     0          
T        Si     0.928960000000     0.488400000000     0.789426666667     0          
T        Si     0.659705000000     0.484565000000     0.666666666667     0          
T        Si     0.590380000000     0.415135000000     0.666666666667     0          
T        Si     0.795535000000     0.383995000000     0.937503333333     0          
T        Si     0.761600000000     0.321040000000     0.877240000000     0          
T        Si     0.765435000000     0.090295000000     0.666666666667     0          
T        Si     0.834865000000     0.159620000000     0.666666666667     0          
T        Si     0.616005000000     0.295535000000     0.937503333333     0          
T        Si     0.678960000000     0.261600000000     0.877240000000     0          
T        Si     0.909705000000     0.265435000000     0.666666666667     0          
T        Si     0.840380000000     0.334865000000     0.666666666667     0          
T        Si     0.704465000000     0.116005000000     0.937503333333     0          
T        Si     0.738400000000     0.178960000000     0.877240000000     0          
T        Si     0.734565000000     0.409705000000     0.666666666667     0          
T        Si     0.665135000000     0.340380000000     0.666666666667     0          
T        Si     0.883995000000     0.204465000000     0.937503333333     0          
T        Si     0.821040000000     0.238400000000     0.877240000000     0          
T        Si     0.590295000000     0.234565000000     0.666666666667     0          
T        Si     0.659620000000     0.165135000000     0.666666666667     0          
T        Si     0.954465000000     0.133995000000     0.937503333333     0          
T        Si     0.988400000000     0.071040000000     0.877240000000     0          
T        Si     0.866005000000     0.454465000000     0.937503333333     0          
T        Si     0.928960000000     0.488400000000     0.877240000000     0          
T        Si     0.545535000000     0.366005000000     0.937503333333     0          
T        Si     0.511600000000     0.428960000000     0.877240000000     0          
T        Si     0.633995000000     0.045535000000     0.937503333333     0          
T        Si     0.571040000000     0.011600000000     0.877240000000     0          
T        Si     0.704465000000     0.116005000000     0.729163333333     0          
T        Si     0.738400000000     0.178960000000     0.789426666667     0          
T        Si     0.883995000000     0.204465000000     0.729163333333     0          
T        Si     0.821040000000     0.238400000000     0.789426666667     0          
T        Si     0.795535000000     0.383995000000     0.729163333333     0          
T        Si     0.761600000000     0.321040000000     0.789426666667     0          
T        Si     0.616005000000     0.295535000000     0.729163333333     0          
T        Si     0.678960000000     0.261600000000     0.789426666667     0          
T        Si     0.545535000000     0.866005000000     0.062496666667     0          
T        Si     0.511600000000     0.928960000000     0.122760000000     0          
T        Si     0.515435000000     0.659705000000     0.000000000000     0          
T        Si     0.584865000000     0.590380000000     0.000000000000     0          
T        Si     0.633995000000     0.545535000000     0.062496666667     0          
T        Si     0.571040000000     0.511600000000     0.122760000000     0          
T        Si     0.840295000000     0.515435000000     0.000000000000     0          
T        Si     0.909620000000     0.584865000000     0.000000000000     0          
T        Si     0.954465000000     0.633995000000     0.062496666667     0          
T        Si     0.988400000000     0.571040000000     0.122760000000     0          
T        Si     0.984565000000     0.840295000000     0.000000000000     0          
T        Si     0.915135000000     0.909620000000     0.000000000000     0          
T        Si     0.866005000000     0.954465000000     0.062496666667     0          
T        Si     0.928960000000     0.988400000000     0.122760000000     0          
T        Si     0.659705000000     0.984565000000     0.000000000000     0          
T        Si     0.590380000000     0.915135000000     0.000000000000     0          
T        Si     0.795535000000     0.883995000000     0.270836666667     0          
T        Si     0.761600000000     0.821040000000     0.210573333333     0          
T        Si     0.765435000000     0.590295000000     0.000000000000     0          
T        Si     0.834865000000     0.659620000000     0.000000000000     0          
T        Si     0.616005000000     0.795535000000     0.270836666667     0          
T        Si     0.678960000000     0.761600000000     0.210573333333     0          
T        Si     0.909705000000     0.765435000000     0.000000000000     0          
T        Si     0.840380000000     0.834865000000     0.000000000000     0          
T        Si     0.704465000000     0.616005000000     0.270836666667     0          
T        Si     0.738400000000     0.678960000000     0.210573333333     0          
T        Si     0.734565000000     0.909705000000     0.000000000000     0          
T        Si     0.665135000000     0.840380000000     0.000000000000     0          
T        Si     0.883995000000     0.704465000000     0.270836666667     0          
T        Si     0.821040000000     0.738400000000     0.210573333333     0          
T        Si     0.590295000000     0.734565000000     0.000000000000     0          
T        Si     0.659620000000     0.665135000000     0.000000000000     0          
T        Si     0.954465000000     0.633995000000     0.270836666667     0          
T        Si     0.988400000000     0.571040000000     0.210573333333     0          
T        Si     0.866005000000     0.954465000000     0.270836666667     0          
T        Si     0.928960000000     0.988400000000     0.210573333333     0          
T        Si     0.545535000000     0.866005000000     0.270836666667     0          
T        Si     0.511600000000     0.928960000000     0.210573333333     0          
T        Si     0.633995000000     0.545535000000     0.270836666667     0          
T        Si     0.571040000000     0.511600000000     0.210573333333     0          
T        Si     0.704465000000     0.616005000000     0.062496666667     0          
T        Si     0.738400000000     0.678960000000     0.122760000000     0          
T        Si     0.883995000000     0.704465000000     0.062496666667     0          
T        Si     0.821040000000     0.738400000000     0.122760000000     0          
T        Si     0.795535000000     0.883995000000     0.062496666667     0          
T        Si     0.761600000000     0.821040000000     0.122760000000     0          
T        Si     0.616005000000     0.795535000000     0.062496666667     0          
T        Si     0.678960000000     0.761600000000     0.122760000000     0          
T        Si     0.545535000000     0.866005000000     0.395830000000     0          
T        Si     0.511600000000     0.928960000000     0.456093333333     0          
T        Si     0.515435000000     0.659705000000     0.333333333333     0          
T        Si     0.584865000000     0.590380000000     0.333333333333     0          
T        Si     0.633995000000     0.545535000000     0.395830000000     0          
T        Si     0.571040000000     0.511600000000     0.456093333333     0          
T        Si     0.840295000000     0.515435000000     0.333333333333     0          
T        Si     0.909620000000     0.584865000000     0.333333333333     0          
T        Si     0.954465000000     0.633995000000     0.395830000000     0          
T        Si     0.988400000000     0.571040000000     0.456093333333     0          
T        Si     0.984565000000     0.840295000000     0.333333333333     0          
T        Si     0.915135000000     0.909620000000     0.333333333333     0          
T        Si     0.866005000000     0.954465000000     0.395830000000     0          
T        Si     0.928960000000     0.988400000000     0.456093333333     0          
T        Si     0.659705000000     0.984565000000     0.333333333333     0          
T        Si     0.590380000000     0.915135000000     0.333333333333     0          
T        Si     0.795535000000     0.883995000000     0.604170000000     0          
T        Si     0.761600000000     0.821040000000     0.543906666667     0          
T        Si     0.765435000000     0.590295000000     0.333333333333     0          
T        Si     0.834865000000     0.659620000000     0.333333333333     0          
T        Si     0.616005000000     0.795535000000     0.604170000000     0          
T        Si     0.678960000000     0.761600000000     0.543906666667     0          
T        Si     0.909705000000     0.765435000000     0.333333333333     0          
T        Si     0.840380000000     0.834865000000     0.333333333333     0          
T        Si     0.704465000000     0.616005000000     0.604170000000     0          
T        Si     0.738400000000     0.678960000000     0.543906666667     0          
T        Si     0.734565000000     0.909705000000     0.333333333333     0          
T        Si     0.665135000000     0.840380000000     0.333333333333     0          
T        Si     0.883995000000     0.704465000000     0.604170000000     0          
T        Si     0.821040000000     0.738400000000     0.543906666667     0          
T        Si     0.590295000000     0.734565000000     0.333333333333     0          
T        Si     0.659620000000     0.665135000000     0.333333333333     0          
T        Si     0.954465000000     0.633995000000     0.604170000000     0          
T        Si     0.988400000000     0.571040000000     0.543906666667     0          
T        Si     0.866005000000     0.954465000000     0.604170000000     0          
T        Si     0.928960000000     0.988400000000     0.543906666667     0          
T        Si     0.545535000000     0.866005000000     0.604170000000     0          
T        Si     0.511600000000     0.928960000000     0.543906666667     0          
T        Si     0.633995000000     0.545535000000     0.604170000000     0          
T        Si     0.571040000000     0.511600000000     0.543906666667     0          
T        Si     0.704465000000     0.616005000000     0.395830000000     0          
T        Si     0.738400000000     0.678960000000     0.456093333333     0          
T        Si     0.883995000000     0.704465000000     0.395830000000     0          
T        Si     0.821040000000     0.738400000000     0.456093333333     0          
T        Si     0.795535000000     0.883995000000     0.395830000000     0          
T        Si     0.761600000000     0.821040000000     0.456093333333     0          
T        Si     0.616005000000     0.795535000000     0.395830000000     0          
T        Si     0.678960000000     0.761600000000     0.456093333333     0          
T        Si     0.545535000000     0.866005000000     0.729163333333     0          
T        Si     0.511600000000     0.928960000000     0.789426666667     0          
T        Si     0.515435000000     0.659705000000     0.666666666667     0          
T        Si     0.584865000000     0.590380000000     0.666666666667     0          
T        Si     0.633995000000     0.545535000000     0.729163333333     0          
T        Si     0.571040000000     0.511600000000     0.789426666667     0          
T        Si     0.840295000000     0.515435000000     0.666666666667     0          
T        Si     0.909620000000     0.584865000000     0.666666666667     0          
T        Si     0.954465000000     0.633995000000     0.729163333333     0          
T        Si     0.988400000000     0.571040000000     0.789426666667     0          
T        Si     0.984565000000     0.840295000000     0.666666666667     0          
T        Si     0.915135000000     0.909620000000     0.666666666667     0          
T        Si     0.866005000000     0.954465000000     0.729163333333     0          
T        Si     0.928960000000     0.988400000000     0.789426666667     0          
T        Si     0.659705000000     0.984565000000     0.666666666667     0          
T        Si     0.590380000000     0.915135000000     0.666666666667     0          
T        Si     0.795535000000     0.883995000000     0.937503333333     0          
T        Si     0.761600000000     0.821040000000     0.877240000000     0          
T        Si     0.765435000000     0.590295000000     0.666666666667     0          
T        Si     0.834865000000     0.659620000000     0.666666666667     0          
T        Si     0.616005000000     0.795535000000     0.937503333333     0          
T        Si     0.678960000000     0.761600000000     0.877240000000     0          
T        Si     0.909705000000     0.765435000000     0.666666666667     0          
T        Si     0.840380000000     0.834865000000     0.666666666667     0          
T        Si     0.704465000000     0.616005000000     0.937503333333     0          
T        Si     0.738400000000     0.678960000000     0.877240000000     0          
T        Si     0.734565000000     0.909705000000     0.666666666667     0          
T        Si     0.665135000000     0.840380000000     0.666666666667     0          
T        Si     0.883995000000     0.704465000000     0.937503333333     0          
T        Si     0.821040000000     0.738400000000     0.877240000000     0          
T        Si     0.590295000000     0.734565000000     0.666666666667     0          
T        Si     0.659620000000     0.665135000000     0.666666666667     0          
T        Si     0.954465000000     0.633995000000     0.937503333333     0          
T        Si     0.988400000000     0.571040000000     0.877240000000     0          
T        Si     0.866005000000     0.954465000000     0.937503333333     0          
T        Si     0.928960000000     0.988400000000     0.877240000000     0          
T        Si     0.545535000000     0.866005000000     0.937503333333     0          
T        Si     0.511600000000     0.928960000000     0.877240000000     0          
T        Si     0.633995000000     0.545535000000     0.937503333333     0          
T        Si     0.571040000000     0.511600000000     0.877240000000     0          
T        Si     0.704465000000     0.616005000000     0.729163333333     0          
T        Si     0.738400000000     0.678960000000     0.789426666667     0          
T        Si     0.883995000000     0.704465000000     0.729163333333     0          
T        Si     0.821040000000     0.738400000000     0.789426666667     0          
T        Si     0.795535000000     0.883995000000     0.729163333333     0          
T        Si     0.761600000000     0.821040000000     0.789426666667     0          
T        Si     0.616005000000     0.795535000000     0.729163333333     0          
T        Si     0.678960000000     0.761600000000     0.789426666667     0          
O        O      0.061015000000     0.407255000000     0.037120000000     0          
O        O      0.018880000000     0.384845000000     0.098230000000     0          
O        O      0.087965000000     0.337965000000     0.075726666667     0          
O        O      0.014400000000     0.334745000000     0.037190000000     0          
O        O      0.035680000000     0.110530000000     0.000000000000     0          
O        O      0.054920000000     0.195080000000     0.000000000000     0          
O        O      0.119360000000     0.130640000000     0.000000000000     0          
O        O      0.049820000000     0.464170000000     0.113286666667     0          
O        O      0.013690000000     0.416180000000     0.166666666667     0          
O        O      0.092745000000     0.061015000000     0.037120000000     0          
O        O      0.115155000000     0.018880000000     0.098230000000     0          
O        O      0.162035000000     0.087965000000     0.075726666667     0          
O        O      0.165255000000     0.014400000000     0.037190000000     0          
O        O      0.389470000000     0.035680000000     0.000000000000     0          
O        O      0.304920000000     0.054920000000     0.000000000000     0          
O        O      0.369360000000     0.119360000000     0.000000000000     0          
O        O      0.035830000000     0.049820000000     0.113286666667     0          
O        O      0.083820000000     0.013690000000     0.166666666667     0          
O        O      0.438985000000     0.092745000000     0.037120000000     0          
O        O      0.481120000000     0.115155000000     0.098230000000     0          
O        O      0.412035000000     0.162035000000     0.075726666667     0          
O        O      0.485600000000     0.165255000000     0.037190000000     0          
O        O      0.464320000000     0.389470000000     0.000000000000     0          
O        O      0.445080000000     0.304920000000     0.000000000000     0          
O        O      0.380640000000     0.369360000000     0.000000000000     0          
O        O      0.450180000000     0.035830000000     0.113286666667     0          
O        O      0.486310000000     0.083820000000     0.166666666667     0          
O        O      0.407255000000     0.438985000000     0.037120000000     0          
O        O      0.384845000000     0.481120000000     0.098230000000     0          
O        O      0.337965000000     0.412035000000     0.075726666667     0          
O        O      0.334745000000     0.485600000000     0.037190000000     0          
O        O      0.110530000000     0.464320000000     0.000000000000     0          
O        O      0.195080000000     0.445080000000     0.000000000000     0          
O        O      0.130640000000     0.380640000000     0.000000000000     0          
O        O      0.464170000000     0.450180000000     0.113286666667     0          
O        O      0.416180000000     0.486310000000     0.166666666667     0          
O        O      0.311015000000     0.342745000000     0.296213333333     0          
O        O      0.268880000000     0.365155000000     0.235103333333     0          
O        O      0.337965000000     0.412035000000     0.257606666667     0          
O        O      0.264400000000     0.415255000000     0.296143333333     0          
O        O      0.285680000000     0.139470000000     0.000000000000     0          
O        O      0.299820000000     0.285830000000     0.220046666667     0          
O        O      0.263690000000     0.333820000000     0.166666666667     0          
O        O      0.157255000000     0.311015000000     0.296213333333     0          
O        O      0.134845000000     0.268880000000     0.235103333333     0          
O        O      0.087965000000     0.337965000000     0.257606666667     0          
O        O      0.084745000000     0.264400000000     0.296143333333     0          
O        O      0.360530000000     0.285680000000     0.000000000000     0          
O        O      0.214170000000     0.299820000000     0.220046666667     0          
O        O      0.166180000000     0.263690000000     0.166666666667     0          
O        O      0.188985000000     0.157255000000     0.296213333333     0          
O        O      0.231120000000     0.134845000000     0.235103333333     0          
O        O      0.162035000000     0.087965000000     0.257606666667     0          
O        O      0.235600000000     0.084745000000     0.296143333333     0          
O        O      0.214320000000     0.360530000000     0.000000000000     0          
O        O      0.200180000000     0.214170000000     0.220046666667     0          
O        O      0.236310000000     0.166180000000     0.166666666667     0          
O        O      0.342745000000     0.188985000000     0.296213333333     0          
O        O      0.365155000000     0.231120000000     0.235103333333     0          
O        O      0.412035000000     0.162035000000     0.257606666667     0          
O        O      0.415255000000     0.235600000000     0.296143333333     0          
O        O      0.139470000000     0.214320000000     0.000000000000     0          
O        O      0.285830000000     0.200180000000     0.220046666667     0          
O        O      0.333820000000     0.236310000000     0.166666666667     0          
O        O      0.438985000000     0.092745000000     0.296213333333     0          
O        O      0.481120000000     0.115155000000     0.235103333333     0          
O        O      0.485600000000     0.165255000000     0.296143333333     0          
O        O      0.450180000000     0.035830000000     0.220046666667     0          
O        O      0.407255000000     0.438985000000     0.296213333333     0          
O        O      0.384845000000     0.481120000000     0.235103333333     0          
O        O      0.334745000000     0.485600000000     0.296143333333     0          
O        O      0.464170000000     0.450180000000     0.220046666667     0          
O        O      0.061015000000     0.407255000000     0.296213333333     0          
O        O      0.018880000000     0.384845000000     0.235103333333     0          
O        O      0.014400000000     0.334745000000     0.296143333333     0          
O        O      0.049820000000     0.464170000000     0.220046666667     0          
O        O      0.092745000000     0.061015000000     0.296213333333     0          
O        O      0.115155000000     0.018880000000     0.235103333333     0          
O        O      0.165255000000     0.014400000000     0.296143333333     0          
O        O      0.035830000000     0.049820000000     0.220046666667     0          
O        O      0.188985000000     0.157255000000     0.037120000000     0          
O        O      0.231120000000     0.134845000000     0.098230000000     0          
O        O      0.235600000000     0.084745000000     0.037190000000     0          
O        O      0.200180000000     0.214170000000     0.113286666667     0          
O        O      0.342745000000     0.188985000000     0.037120000000     0          
O        O      0.365155000000     0.231120000000     0.098230000000     0          
O        O      0.415255000000     0.235600000000     0.037190000000     0          
O        O      0.285830000000     0.200180000000     0.113286666667     0          
O        O      0.311015000000     0.342745000000     0.037120000000     0          
O        O      0.268880000000     0.365155000000     0.098230000000     0          
O        O      0.264400000000     0.415255000000     0.037190000000     0          
O        O      0.299820000000     0.285830000000     0.113286666667     0          
O        O      0.157255000000     0.311015000000     0.037120000000     0          
O        O      0.134845000000     0.268880000000     0.098230000000     0          
O        O      0.084745000000     0.264400000000     0.037190000000     0          
O        O      0.214170000000     0.299820000000     0.113286666667     0          
O        O      0.061015000000     0.407255000000     0.370453333333     0          
O        O      0.018880000000     0.384845000000     0.431563333333     0          
O        O      0.087965000000     0.337965000000     0.409060000000     0          
O        O      0.014400000000     0.334745000000     0.370523333333     0          
O        O      0.035680000000     0.110530000000     0.333333333333     0          
O        O      0.054920000000     0.195080000000     0.333333333333     0          
O        O      0.119360000000     0.130640000000     0.333333333333     0          
O        O      0.049820000000     0.464170000000     0.446620000000     0          
O        O      0.013690000000     0.416180000000     0.500000000000     0          
O        O      0.092745000000     0.061015000000     0.370453333333     0          
O        O      0.115155000000     0.018880000000     0.431563333333     0          
O        O      0.162035000000     0.087965000000     0.409060000000     0          
O        O      0.165255000000     0.014400000000     0.370523333333     0          
O        O      0.389470000000     0.035680000000     0.333333333333     0          
O        O      0.304920000000     0.054920000000     0.333333333333     0          
O        O      0.369360000000     0.119360000000     0.333333333333     0          
O        O      0.035830000000     0.049820000000     0.446620000000     0          
O        O      0.083820000000     0.013690000000     0.500000000000     0          
O        O      0.438985000000     0.092745000000     0.370453333333     0          
O        O      0.481120000000     0.115155000000     0.431563333333     0          
O        O      0.412035000000     0.162035000000     0.409060000000     0          
O        O      0.485600000000     0.165255000000     0.370523333333     0          
O        O      0.464320000000     0.389470000000     0.333333333333     0          
O        O      0.445080000000     0.304920000000     0.333333333333     0          
O        O      0.380640000000     0.369360000000     0.333333333333     0          
O        O      0.450180000000     0.035830000000     0.446620000000     0          
O        O      0.486310000000     0.083820000000     0.500000000000     0          
O        O      0.407255000000     0.438985000000     0.370453333333     0          
O        O      0.384845000000     0.481120000000     0.431563333333     0          
O        O      0.337965000000     0.412035000000     0.409060000000     0          
O        O      0.334745000000     0.485600000000     0.370523333333     0          
O        O      0.110530000000     0.464320000000     0.333333333333     0          
O        O      0.195080000000     0.445080000000     0.333333333333     0          
O        O      0.130640000000     0.380640000000     0.333333333333     0          
O        O      0.464170000000     0.450180000000     0.446620000000     0          
O        O      0.416180000000     0.486310000000     0.500000000000     0          
O        O      0.311015000000     0.342745000000     0.629546666667     0          
O        O      0.268880000000     0.365155000000     0.568436666667     0          
O        O      0.337965000000     0.412035000000     0.590940000000     0          
O        O      0.264400000000     0.415255000000     0.629476666667     0          
O        O      0.285680000000     0.139470000000     0.333333333333     0          
O        O      0.299820000000     0.285830000000     0.553380000000     0          
O        O      0.263690000000     0.333820000000     0.500000000000     0          
O        O      0.157255000000     0.311015000000     0.629546666667     0          
O        O      0.134845000000     0.268880000000     0.568436666667     0          
O        O      0.087965000000     0.337965000000     0.590940000000     0          
O        O      0.084745000000     0.264400000000     0.629476666667     0          
O        O      0.360530000000     0.285680000000     0.333333333333     0          
O        O      0.214170000000     0.299820000000     0.553380000000     0          
O        O      0.166180000000     0.263690000000     0.500000000000     0          
O        O      0.188985000000     0.157255000000     0.629546666667     0          
O        O      0.231120000000     0.134845000000     0.568436666667     0          
O        O      0.162035000000     0.087965000000     0.590940000000     0          
O        O      0.235600000000     0.084745000000     0.629476666667     0          
O        O      0.214320000000     0.360530000000     0.333333333333     0          
O        O      0.200180000000     0.214170000000     0.553380000000     0          
O        O      0.236310000000     0.166180000000     0.500000000000     0          
O        O      0.342745000000     0.188985000000     0.629546666667     0          
O        O      0.365155000000     0.231120000000     0.568436666667     0          
O        O      0.412035000000     0.162035000000     0.590940000000     0          
O        O      0.415255000000     0.235600000000     0.629476666667     0          
O        O      0.139470000000     0.214320000000     0.333333333333     0          
O        O      0.285830000000     0.200180000000     0.553380000000     0          
O        O      0.333820000000     0.236310000000     0.500000000000     0          
O        O      0.438985000000     0.092745000000     0.629546666667     0          
O        O      0.481120000000     0.115155000000     0.568436666667     0          
O        O      0.485600000000     0.165255000000     0.629476666667     0          
O        O      0.450180000000     0.035830000000     0.553380000000     0          
O        O      0.407255000000     0.438985000000     0.629546666667     0          
O        O      0.384845000000     0.481120000000     0.568436666667     0          
O        O      0.334745000000     0.485600000000     0.629476666667     0          
O        O      0.464170000000     0.450180000000     0.553380000000     0          
O        O      0.061015000000     0.407255000000     0.629546666667     0          
O        O      0.018880000000     0.384845000000     0.568436666667     0          
O        O      0.014400000000     0.334745000000     0.629476666667     0          
O        O      0.049820000000     0.464170000000     0.553380000000     0          
O        O      0.092745000000     0.061015000000     0.629546666667     0          
O        O      0.115155000000     0.018880000000     0.568436666667     0          
O        O      0.165255000000     0.014400000000     0.629476666667     0          
O        O      0.035830000000     0.049820000000     0.553380000000     0          
O        O      0.188985000000     0.157255000000     0.370453333333     0          
O        O      0.231120000000     0.134845000000     0.431563333333     0          
O        O      0.235600000000     0.084745000000     0.370523333333     0          
O        O      0.200180000000     0.214170000000     0.446620000000     0          
O        O      0.342745000000     0.188985000000     0.370453333333     0          
O        O      0.365155000000     0.231120000000     0.431563333333     0          
O        O      0.415255000000     0.235600000000     0.370523333333     0          
O        O      0.285830000000     0.200180000000     0.446620000000     0          
O        O      0.311015000000     0.342745000000     0.370453333333     0          
O        O      0.268880000000     0.365155000000     0.431563333333     0          
O        O      0.264400000000     0.415255000000     0.370523333333     0          
O        O      0.299820000000     0.285830000000     0.446620000000     0          
O        O      0.157255000000     0.311015000000     0.370453333333     0          
O        O      0.134845000000     0.268880000000     0.431563333333     0          
O        O      0.084745000000     0.264400000000     0.370523333333     0          
O        O      0.214170000000     0.299820000000     0.446620000000     0          
O        O      0.061015000000     0.407255000000     0.703786666667     0          
O        O      0.018880000000     0.384845000000     0.764896666667     0          
O        O      0.087965000000     0.337965000000     0.742393333333     0          
O        O      0.014400000000     0.334745000000     0.703856666667     0          
O        O      0.035680000000     0.110530000000     0.666666666667     0          
O        O      0.054920000000     0.195080000000     0.666666666667     0          
O        O      0.119360000000     0.130640000000     0.666666666667     0          
O        O      0.049820000000     0.464170000000     0.779953333333     0          
O        O      0.013690000000     0.416180000000     0.833333333333     0          
O        O      0.092745000000     0.061015000000     0.703786666667     0          
O        O      0.115155000000     0.018880000000     0.764896666667     0          
O        O      0.162035000000     0.087965000000     0.742393333333     0          
O        O      0.165255000000     0.014400000000     0.703856666667     0          
O        O      0.389470000000     0.035680000000     0.666666666667     0          
O        O      0.304920000000     0.054920000000     0.666666666667     0          
O        O      0.369360000000     0.119360000000     0.666666666667     0          
O        O      0.035830000000     0.049820000000     0.779953333333     0          
O        O      0.083820000000     0.013690000000     0.833333333333     0          
O        O      0.438985000000     0.092745000000     0.703786666667     0          
O        O      0.481120000000     0.115155000000     0.764896666667     0          
O        O      0.412035000000     0.162035000000     0.742393333333     0          
O        O      0.485600000000     0.165255000000     0.703856666667     0          
O        O      0.464320000000     0.389470000000     0.666666666667     0          
O        O      0.445080000000     0.304920000000     0.666666666667     0          
O        O      0.380640000000     0.369360000000     0.666666666667     0          
O        O      0.450180000000     0.035830000000     0.779953333333     0          
O        O      0.486310000000     0.083820000000     0.833333333333     0          
O        O      0.407255000000     0.438985000000     0.703786666667     0          
O        O      0.384845000000     0.481120000000     0.764896666667     0          
O        O      0.337965000000     0.412035000000     0.742393333333     0          
O        O      0.334745000000     0.485600000000     0.703856666667     0          
O        O      0.110530000000     0.464320000000     0.666666666667     0          
O        O      0.195080000000     0.445080000000     0.666666666667     0          
O        O      0.130640000000     0.380640000000     0.666666666667     0          
O        O      0.464170000000     0.450180000000     0.779953333333     0          
O        O      0.416180000000     0.486310000000     0.833333333333     0          
O        O      0.311015000000     0.342745000000     0.962880000000     0          
O        O      0.268880000000     0.365155000000     0.901770000000     0          
O        O      0.337965000000     0.412035000000     0.924273333333     0          
O        O      0.264400000000     0.415255000000     0.962810000000     0          
O        O      0.285680000000     0.139470000000     0.666666666667     0          
O        O      0.299820000000     0.285830000000     0.886713333333     0          
O        O      0.263690000000     0.333820000000     0.833333333333     0          
O        O      0.157255000000     0.311015000000     0.962880000000     0          
O        O      0.134845000000     0.268880000000     0.901770000000     0          
O        O      0.087965000000     0.337965000000     0.924273333333     0          
O        O      0.084745000000     0.264400000000     0.962810000000     0          
O        O      0.360530000000     0.285680000000     0.666666666667     0          
O        O      0.214170000000     0.299820000000     0.886713333333     0          
O        O      0.166180000000     0.263690000000     0.833333333333     0          
O        O      0.188985000000     0.157255000000     0.962880000000     0          
O        O      0.231120000000     0.134845000000     0.901770000000     0          
O        O      0.162035000000     0.087965000000     0.924273333333     0          
O        O      0.235600000000     0.084745000000     0.962810000000     0          
O        O      0.214320000000     0.360530000000     0.666666666667     0          
O        O      0.200180000000     0.214170000000     0.886713333333     0          
O        O      0.236310000000     0.166180000000     0.833333333333     0          
O        O      0.342745000000     0.188985000000     0.962880000000     0          
O        O      0.365155000000     0.231120000000     0.901770000000     0          
O        O      0.412035000000     0.162035000000     0.924273333333     0          
O        O      0.415255000000     0.235600000000     0.962810000000     0          
O        O      0.139470000000     0.214320000000     0.666666666667     0          
O        O      0.285830000000     0.200180000000     0.886713333333     0          
O        O      0.333820000000     0.236310000000     0.833333333333     0          
O        O      0.438985000000     0.092745000000     0.962880000000     0          
O        O      0.481120000000     0.115155000000     0.901770000000     0          
O        O      0.485600000000     0.165255000000     0.962810000000     0          
O        O      0.450180000000     0.035830000000     0.886713333333     0          
O        O      0.407255000000     0.438985000000     0.962880000000     0          
O        O      0.384845000000     0.481120000000     0.901770000000     0          
O        O      0.334745000000     0.485600000000     0.962810000000     0          
O        O      0.464170000000     0.450180000000     0.886713333333     0          
O        O      0.061015000000     0.407255000000     0.962880000000     0          
O        O      0.018880000000     0.384845000000     0.901770000000     0          
O        O      0.014400000000     0.334745000000     0.962810000000     0          
O        O      0.049820000000     0.464170000000     0.886713333333     0          
O        O      0.092745000000     0.061015000000     0.962880000000     0          
O        O      0.115155000000     0.018880000000     0.901770000000     0          
O        O      0.165255000000     0.014400000000     0.962810000000     0          
O        O      0.035830000000     0.049820000000     0.886713333333     0          
O        O      0.188985000000     0.157255000000     0.703786666667     0          
O        O      0.231120000000     0.134845000000     0.764896666667     0          
O        O      0.235600000000     0.084745000000     0.703856666667     0          
O        O      0.200180000000     0.214170000000     0.779953333333     0          
O        O      0.342745000000     0.188985000000     0.703786666667     0          
O        O      0.365155000000     0.231120000000     0.764896666667     0          
O        O      0.415255000000     0.235600000000     0.703856666667     0          
O        O      0.285830000000     0.200180000000     0.779953333333     0          
O        O      0.311015000000     0.342745000000     0.703786666667     0          
O        O      0.268880000000     0.365155000000     0.764896666667     0          
O        O      0.264400000000     0.415255000000     0.703856666667     0          
O        O      0.299820000000     0.285830000000     0.779953333333     0          
O        O      0.157255000000     0.311015000000     0.703786666667     0          
O        O      0.134845000000     0.268880000000     0.764896666667     0          
O        O      0.084745000000     0.264400000000     0.703856666667     0          
O        O      0.214170000000     0.299820000000     0.779953333333     0          
O        O      0.061015000000     0.907255000000     0.037120000000     0          
O        O      0.018880000000     0.884845000000     0.098230000000     0          
O        O      0.087965000000     0.837965000000     0.075726666667     0          
O        O      0.014400000000     0.834745000000     0.037190000000     0          
O        O      0.035680000000     0.610530000000     0.000000000000     0          
O        O      0.054920000000     0.695080000000     0.000000000000     0          
O        O      0.119360000000     0.630640000000     0.000000000000     0          
O        O      0.049820000000     0.964170000000     0.113286666667     0          
O        O      0.013690000000     0.916180000000     0.166666666667     0          
O        O      0.092745000000     0.561015000000     0.037120000000     0          
O        O      0.115155000000     0.518880000000     0.098230000000     0          
O        O      0.162035000000     0.587965000000     0.075726666667     0          
O        O      0.165255000000     0.514400000000     0.037190000000     0          
O        O      0.389470000000     0.535680000000     0.000000000000     0          
O        O      0.304920000000     0.554920000000     0.000000000000     0          
O        O      0.369360000000     0.619360000000     0.000000000000     0          
O        O      0.035830000000     0.549820000000     0.113286666667     0          
O        O      0.083820000000     0.513690000000     0.166666666667     0          
O        O      0.438985000000     0.592745000000     0.037120000000     0          
O        O      0.481120000000     0.615155000000     0.098230000000     0          
O        O      0.412035000000     0.662035000000     0.075726666667     0          
O        O      0.485600000000     0.665255000000     0.037190000000     0          
O        O      0.464320000000     0.889470000000     0.000000000000     0          
O        O      0.445080000000     0.804920000000     0.000000000000     0          
O        O      0.380640000000     0.869360000000     0.000000000000     0          
O        O      0.450180000000     0.535830000000     0.113286666667     0          
O        O      0.486310000000     0.583820000000     0.166666666667     0          
O        O      0.407255000000     0.938985000000     0.037120000000     0          
O        O      0.384845000000     0.981120000000     0.098230000000     0          
O        O      0.337965000000     0.912035000000     0.075726666667     0          
O        O      0.334745000000     0.985600000000     0.037190000000     0          
O        O      0.110530000000     0.964320000000     0.000000000000     0          
O        O      0.195080000000     0.945080000000     0.000000000000     0          
O        O      0.130640000000     0.880640000000     0.000000000000     0          
O        O      0.464170000000     0.950180000000     0.113286666667     0          
O        O      0.416180000000     0.986310000000     0.166666666667     0          
O        O      0.311015000000     0.842745000000     0.296213333333     0          
O        O      0.268880000000     0.865155000000     0.235103333333     0          
O        O      0.337965000000     0.912035000000     0.257606666667     0          
O        O      0.264400000000     0.915255000000     0.296143333333     0          
O        O      0.285680000000     0.639470000000     0.000000000000     0          
O        O      0.299820000000     0.785830000000     0.220046666667     0          
O        O      0.263690000000     0.833820000000     0.166666666667     0          
O        O      0.157255000000     0.811015000000     0.296213333333     0          
O        O      0.134845000000     0.768880000000     0.235103333333     0          
O        O      0.087965000000     0.837965000000     0.257606666667     0          
O        O      0.084745000000     0.764400000000     0.296143333333     0          
O        O      0.360530000000     0.785680000000     0.000000000000     0          
O        O      0.214170000000     0.799820000000     0.220046666667     0          
O        O      0.166180000000     0.763690000000     0.166666666667     0          
O        O      0.188985000000     0.657255000000     0.296213333333     0          
O        O      0.231120000000     0.634845000000     0.235103333333     0          
O        O      0.162035000000     0.587965000000     0.257606666667     0          
O        O      0.235600000000     0.584745000000     0.296143333333     0          
O        O      0.214320000000     0.860530000000     0.000000000000     0          
O        O      0.200180000000     0.714170000000     0.220046666667     0          
O        O      0.236310000000     0.666180000000     0.166666666667     0          
O        O      0.342745000000     0.688985000000     0.296213333333     0          
O        O      0.365155000000     0.731120000000     0.235103333333     0          
O        O      0.412035000000     0.662035000000     0.257606666667     0          
O        O      0.415255000000     0.735600000000     0.296143333333     0          
O        O      0.139470000000     0.714320000000     0.000000000000     0          
O        O      0.285830000000     0.700180000000     0.220046666667     0          
O        O      0.333820000000     0.736310000000     0.166666666667     0          
O        O      0.438985000000     0.592745000000     0.296213333333     0          
O        O      0.481120000000     0.615155000000     0.235103333333     0          
O        O      0.485600000000     0.665255000000     0.296143333333     0          
O        O      0.450180000000     0.535830000000     0.220046666667     0          
O        O      0.407255000000     0.938985000000     0.296213333333     0          
O        O      0.384845000000     0.981120000000     0.235103333333     0          
O        O      0.334745000000     0.985600000000     0.296143333333     0          
O        O      0.464170000000     0.950180000000     0.220046666667     0          
O        O      0.061015000000     0.907255000000     0.296213333333     0          
O        O      0.018880000000     0.884845000000     0.235103333333     0          
O        O      0.014400000000     0.834745000000     0.296143333333     0          
O        O      0.049820000000     0.964170000000     0.220046666667     0          
O        O      0.092745000000     0.561015000000     0.296213333333     0          
O        O      0.115155000000     0.518880000000     0.235103333333     0          
O        O      0.165255000000     0.514400000000     0.296143333333     0          
O        O      0.035830000000     0.549820000000     0.220046666667     0          
O        O      0.188985000000     0.657255000000     0.037120000000     0          
O        O      0.231120000000     0.634845000000     0.098230000000     0          
O        O      0.235600000000     0.584745000000     0.037190000000     0          
O        O      0.200180000000     0.714170000000     0.113286666667     0          
O        O      0.342745000000     0.688985000000     0.037120000000     0          
O        O      0.365155000000     0.731120000000     0.098230000000     0          
O        O      0.415255000000     0.735600000000     0.037190000000     0          
O        O      0.285830000000     0.700180000000     0.113286666667     0          
O        O      0.311015000000     0.842745000000     0.037120000000     0          
O        O      0.268880000000     0.865155000000     0.098230000000     0          
O        O      0.264400000000     0.915255000000     0.037190000000     0          
O        O      0.299820000000     0.785830000000     0.113286666667     0          
O        O      0.157255000000     0.811015000000     0.037120000000     0          
O        O      0.134845000000     0.768880000000     0.098230000000     0          
O        O      0.084745000000     0.764400000000     0.037190000000     0          
O        O      0.214170000000     0.799820000000     0.113286666667     0          
O        O      0.061015000000     0.907255000000     0.370453333333     0          
O        O      0.018880000000     0.884845000000     0.431563333333     0          
O        O      0.087965000000     0.837965000000     0.409060000000     0          
O        O      0.014400000000     0.834745000000     0.370523333333     0          
O        O      0.035680000000     0.610530000000     0.333333333333     0          
O        O      0.054920000000     0.695080000000     0.333333333333     0          
O        O      0.119360000000     0.630640000000     0.333333333333     0          
O        O      0.049820000000     0.964170000000     0.446620000000     0          
O        O      0.013690000000     0.916180000000     0.500000000000     0          
O        O      0.092745000000     0.561015000000     0.370453333333     0          
O        O      0.115155000000     0.518880000000     0.431563333333     0          
O        O      0.162035000000     0.587965000000     0.409060000000     0          
O        O      0.165255000000     0.514400000000     0.370523333333     0          
O        O      0.389470000000     0.535680000000     0.333333333333     0          
O        O      0.304920000000     0.554920000000     0.333333333333     0          
O        O      0.369360000000     0.619360000000     0.333333333333     0          
O        O      0.035830000000     0.549820000000     0.446620000000     0          
O        O      0.083820000000     0.513690000000     0.500000000000     0          
O        O      0.438985000000     0.592745000000     0.370453333333     0          
O        O      0.481120000000     0.615155000000     0.431563333333     0          
O        O      0.412035000000     0.662035000000     0.409060000000     0          
O        O      0.485600000000     0.665255000000     0.370523333333     0          
O        O      0.464320000000     0.889470000000     0.333333333333     0          
O        O      0.445080000000     0.804920000000     0.333333333333     0          
O        O      0.380640000000     0.869360000000     0.333333333333     0          
O        O      0.450180000000     0.535830000000     0.446620000000     0          
O        O      0.486310000000     0.583820000000     0.500000000000     0          
O        O      0.407255000000     0.938985000000     0.370453333333     0          
O        O      0.384845000000     0.981120000000     0.431563333333     0          
O        O      0.337965000000     0.912035000000     0.409060000000     0          
O        O      0.334745000000     0.985600000000     0.370523333333     0          
O        O      0.110530000000     0.964320000000     0.333333333333     0          
O        O      0.195080000000     0.945080000000     0.333333333333     0          
O        O      0.130640000000     0.880640000000     0.333333333333     0          
O        O      0.464170000000     0.950180000000     0.446620000000     0          
O        O      0.416180000000     0.986310000000     0.500000000000     0          
O        O      0.311015000000     0.842745000000     0.629546666667     0          
O        O      0.268880000000     0.865155000000     0.568436666667     0          
O        O      0.337965000000     0.912035000000     0.590940000000     0          
O        O      0.264400000000     0.915255000000     0.629476666667     0          
O        O      0.285680000000     0.639470000000     0.333333333333     0          
O        O      0.299820000000     0.785830000000     0.553380000000     0          
O        O      0.263690000000     0.833820000000     0.500000000000     0          
O        O      0.157255000000     0.811015000000     0.629546666667     0          
O        O      0.134845000000     0.768880000000     0.568436666667     0          
O        O      0.087965000000     0.837965000000     0.590940000000     0          
O        O      0.084745000000     0.764400000000     0.629476666667     0          
O        O      0.360530000000     0.785680000000     0.333333333333     0          
O        O      0.214170000000     0.799820000000     0.553380000000     0          
O        O      0.166180000000     0.763690000000     0.500000000000     0          
O        O      0.188985000000     0.657255000000     0.629546666667     0          
O        O      0.231120000000     0.634845000000     0.568436666667     0          
O        O      0.162035000000     0.587965000000     0.590940000000     0          
O        O      0.235600000000     0.584745000000     0.629476666667     0          
O        O      0.214320000000     0.860530000000     0.333333333333     0          
O        O      0.200180000000     0.714170000000     0.553380000000     0          
O        O      0.236310000000     0.666180000000     0.500000000000     0          
O        O      0.342745000000     0.688985000000     0.629546666667     0          
O        O      0.365155000000     0.731120000000     0.568436666667     0          
O        O      0.412035000000     0.662035000000     0.590940000000     0          
O        O      0.415255000000     0.735600000000     0.629476666667     0          
O        O      0.139470000000     0.714320000000     0.333333333333     0          
O        O      0.285830000000     0.700180000000     0.553380000000     0          
O        O      0.333820000000     0.736310000000     0.500000000000     0          
O        O      0.438985000000     0.592745000000     0.629546666667     0          
O        O      0.481120000000     0.615155000000     0.568436666667     0          
O        O      0.485600000000     0.665255000000     0.629476666667     0          
O        O      0.450180000000     0.535830000000     0.553380000000     0          
O        O      0.407255000000     0.938985000000     0.629546666667     0          
O        O      0.384845000000     0.981120000000     0.568436666667     0          
O        O      0.334745000000     0.985600000000     0.629476666667     0          
O        O      0.464170000000     0.950180000000     0.553380000000     0          
O        O      0.061015000000     0.907255000000     0.629546666667     0          
O        O      0.018880000000     0.884845000000     0.568436666667     0          
O        O      0.014400000000     0.834745000000     0.629476666667     0          
O        O      0.049820000000     0.964170000000     0.553380000000     0          
O        O      0.092745000000     0.561015000000     0.629546666667     0          
O        O      0.115155000000     0.518880000000     0.568436666667     0          
O        O      0.165255000000     0.514400000000     0.629476666667     0          
O        O      0.035830000000     0.549820000000     0.553380000000     0          
O        O      0.188985000000     0.657255000000     0.370453333333     0          
O        O      0.231120000000     0.634845000000     0.431563333333     0          
O        O      0.235600000000     0.584745000000     0.370523333333     0          
O        O      0.200180000000     0.714170000000     0.446620000000     0          
O        O      0.342745000000     0.688985000000     0.370453333333     0          
O        O      0.365155000000     0.731120000000     0.431563333333     0          
O        O      0.415255000000     0.735600000000     0.370523333333     0          
O        O      0.285830000000     0.700180000000     0.446620000000     0          
O        O      0.311015000000     0.842745000000     0.370453333333     0          
O        O      0.268880000000     0.865155000000     0.431563333333     0          
O        O      0.264400000000     0.915255000000     0.370523333333     0          
O        O      0.299820000000     0.785830000000     0.446620000000     0          
O        O      0.157255000000     0.811015000000     0.370453333333     0          
O        O      0.134845000000     0.768880000000     0.431563333333     0          
O        O      0.084745000000     0.764400000000     0.370523333333     0          
O        O      0.214170000000     0.799820000000     0.446620000000     0          
O        O      0.061015000000     0.907255000000     0.703786666667     0          
O        O      0.018880000000     0.884845000000     0.764896666667     0          
O        O      0.087965000000     0.837965000000     0.742393333333     0          
O        O      0.014400000000     0.834745000000     0.703856666667     0          
O        O      0.035680000000     0.610530000000     0.666666666667     0          
O        O      0.054920000000     0.695080000000     0.666666666667     0          
O        O      0.119360000000     0.630640000000     0.666666666667     0          
O        O      0.049820000000     0.964170000000     0.779953333333     0          
O        O      0.013690000000     0.916180000000     0.833333333333     0          
O        O      0.092745000000     0.561015000000     0.703786666667     0          
O        O      0.115155000000     0.518880000000     0.764896666667     0          
O        O      0.162035000000     0.587965000000     0.742393333333     0          
O        O      0.165255000000     0.514400000000     0.703856666667     0          
O        O      0.389470000000     0.535680000000     0.666666666667     0          
O        O      0.304920000000     0.554920000000     0.666666666667     0          
O        O      0.369360000000     0.619360000000     0.666666666667     0          
O        O      0.035830000000     0.549820000000     0.779953333333     0          
O        O      0.083820000000     0.513690000000     0.833333333333     0          
O        O      0.438985000000     0.592745000000     0.703786666667     0          
O        O      0.481120000000     0.615155000000     0.764896666667     0          
O        O      0.412035000000     0.662035000000     0.742393333333     0          
O        O      0.485600000000     0.665255000000     0.703856666667     0          
O        O      0.464320000000     0.889470000000     0.666666666667     0          
O        O      0.445080000000     0.804920000000     0.666666666667     0          
O        O      0.380640000000     0.869360000000     0.666666666667     0          
O        O      0.450180000000     0.535830000000     0.779953333333     0          
O        O      0.486310000000     0.583820000000     0.833333333333     0          
O        O      0.407255000000     0.938985000000     0.703786666667     0          
O        O      0.384845000000     0.981120000000     0.764896666667     0          
O        O      0.337965000000     0.912035000000     0.742393333333     0          
O        O      0.334745000000     0.985600000000     0.703856666667     0          
O        O      0.110530000000     0.964320000000     0.666666666667     0          
O        O      0.195080000000     0.945080000000     0.666666666667     0          
O        O      0.130640000000     0.880640000000     0.666666666667     0          
O        O      0.464170000000     0.950180000000     0.779953333333     0          
O        O      0.416180000000     0.986310000000     0.833333333333     0          
O        O      0.311015000000     0.842745000000     0.962880000000     0          
O        O      0.268880000000     0.865155000000     0.901770000000     0          
O        O      0.337965000000     0.912035000000     0.924273333333     0          
O        O      0.264400000000     0.915255000000     0.962810000000     0          
O        O      0.285680000000     0.639470000000     0.666666666667     0          
O        O      0.299820000000     0.785830000000     0.886713333333     0          
O        O      0.263690000000     0.833820000000     0.833333333333     0          
O        O      0.157255000000     0.811015000000     0.962880000000     0          
O        O      0.134845000000     0.768880000000     0.901770000000     0          
O        O      0.087965000000     0.837965000000     0.924273333333     0          
O        O      0.084745000000     0.764400000000     0.962810000000     0          
O        O      0.360530000000     0.785680000000     0.666666666667     0          
O        O      0.214170000000     0.799820000000     0.886713333333     0          
O        O      0.166180000000     0.763690000000     0.833333333333     0          
O        O      0.188985000000     0.657255000000     0.962880000000     0          
O        O      0.231120000000     0.634845000000     0.901770000000     0          
O        O      0.162035000000     0.587965000000     0.924273333333     0          
O        O      0.235600000000     0.584745000000     0.962810000000     0          
O        O      0.214320000000     0.860530000000     0.666666666667     0          
O        O      0.200180000000     0.714170000000     0.886713333333     0          
O        O      0.236310000000     0.666180000000     0.833333333333     0          
O        O      0.342745000000     0.688985000000     0.962880000000     0          
O        O      0.365155000000     0.731120000000     0.901770000000     0          
O        O      0.412035000000     0.662035000000     0.924273333333     0          
O        O      0.415255000000     0.735600000000     0.962810000000     0          
O        O      0.139470000000     0.714320000000     0.666666666667     0          
O        O      0.285830000000     0.700180000000     0.886713333333     0          
O        O      0.333820000000     0.736310000000     0.833333333333     0          
O        O      0.438985000000     0.592745000000     0.962880000000     0          
O        O      0.481120000000     0.615155000000     0.901770000000     0          
O        O      0.485600000000     0.665255000000     0.962810000000     0          
O        O      0.450180000000     0.535830000000     0.886713333333     0          
O        O      0.407255000000     0.938985000000     0.962880000000     0          
O        O      0.384845000000     0.981120000000     0.901770000000     0          
O        O      0.334745000000     0.985600000000     0.962810000000     0          
O        O      0.464170000000     0.950180000000     0.886713333333     0          
O        O      0.061015000000     0.907255000000     0.962880000000     0          
O        O      0.018880000000     0.884845000000     0.901770000000     0          
O        O      0.014400000000     0.834745000000     0.962810000000     0          
O        O      0.049820000000     0.964170000000     0.886713333333     0          
O        O      0.092745000000     0.561015000000     0.962880000000     0          
O        O      0.115155000000     0.518880000000     0.901770000000     0          
O        O      0.165255000000     0.514400000000     0.962810000000     0          
O        O      0.035830000000     0.549820000000     0.886713333333     0          
O        O      0.188985000000     0.657255000000     0.703786666667     0          
O        O      0.231120000000     0.634845000000     0.764896666667     0          
O        O      0.235600000000     0.584745000000     0.703856666667     0          
O        O      0.200180000000     0.714170000000     0.779953333333     0          
O        O      0.342745000000     0.688985000000     0.703786666667     0          
O        O      0.365155000000     0.731120000000     0.764896666667     0          
O        O      0.415255000000     0.735600000000     0.703856666667     0          
O        O      0.285830000000     0.700180000000     0.779953333333     0          
O        O      0.311015000000     0.842745000000     0.703786666667     0          
O        O      0.268880000000     0.865155000000     0.764896666667     0          
O        O      0.264400000000     0.915255000000     0.703856666667     0          
O        O      0.299820000000     0.785830000000     0.779953333333     0          
O        O      0.157255000000     0.811015000000     0.703786666667     0          
O        O      0.134845000000     0.768880000000     0.764896666667     0          
O        O      0.084745000000     0.764400000000     0.703856666667     0          
O        O      0.214170000000     0.799820000000     0.779953333333     0          
O        O      0.561015000000     0.407255000000     0.037120000000     0          
O        O      0.518880000000     0.384845000000     0.098230000000     0          
O        O      0.587965000000     0.337965000000     0.075726666667     0          
O        O      0.514400000000     0.334745000000     0.037190000000     0          
O        O      0.535680000000     0.110530000000     0.000000000000     0          
O        O      0.554920000000     0.195080000000     0.000000000000     0          
O        O      0.619360000000     0.130640000000     0.000000000000     0          
O        O      0.549820000000     0.464170000000     0.113286666667     0          
O        O      0.513690000000     0.416180000000     0.166666666667     0          
O        O      0.592745000000     0.061015000000     0.037120000000     0          
O        O      0.615155000000     0.018880000000     0.098230000000     0          
O        O      0.662035000000     0.087965000000     0.075726666667     0          
O        O      0.665255000000     0.014400000000     0.037190000000     0          
O        O      0.889470000000     0.035680000000     0.000000000000     0          
O        O      0.804920000000     0.054920000000     0.000000000000     0          
O        O      0.869360000000     0.119360000000     0.000000000000     0          
O        O      0.535830000000     0.049820000000     0.113286666667     0          
O        O      0.583820000000     0.013690000000     0.166666666667     0          
O        O      0.938985000000     0.092745000000     0.037120000000     0          
O        O      0.981120000000     0.115155000000     0.098230000000     0          
O        O      0.912035000000     0.162035000000     0.075726666667     0          
O        O      0.985600000000     0.165255000000     0.037190000000     0          
O        O      0.964320000000     0.389470000000     0.000000000000     0          
O        O      0.945080000000     0.304920000000     0.000000000000     0          
O        O      0.880640000000     0.369360000000     0.000000000000     0          
O        O      0.950180000000     0.035830000000     0.113286666667     0          
O        O      0.986310000000     0.083820000000     0.166666666667     0          
O        O      0.907255000000     0.438985000000     0.037120000000     0          
O        O      0.884845000000     0.481120000000     0.098230000000     0          
O        O      0.837965000000     0.412035000000     0.075726666667     0          
O        O      0.834745000000     0.485600000000     0.037190000000     0          
O        O      0.610530000000     0.464320000000     0.000000000000     0          
O        O      0.695080000000     0.445080000000     0.000000000000     0          
O        O      0.630640000000     0.380640000000     0.000000000000     0          
O        O      0.964170000000     0.450180000000     0.113286666667     0          
O        O      0.916180000000     0.486310000000     0.166666666667     0          
O        O      0.811015000000     0.342745000000     0.296213333333     0          
O        O      0.768880000000     0.365155000000     0.235103333333     0          
O        O      0.837965000000     0.412035000000     0.257606666667     0          
O        O      0.764400000000     0.415255000000     0.296143333333     0          
O        O      0.785680000000     0.139470000000     0.000000000000     0          
O        O      0.799820000000     0.285830000000     0.220046666667     0          
O        O      0.763690000000     0.333820000000     0.166666666667     0          
O        O      0.657255000000     0.311015000000     0.296213333333     0          
O        O      0.634845000000     0.268880000000     0.235103333333     0          
O        O      0.587965000000     0.337965000000     0.257606666667     0          
O        O      0.584745000000     0.264400000000     0.296143333333     0          
O        O      0.860530000000     0.285680000000     0.000000000000     0          
O        O      0.714170000000     0.299820000000     0.220046666667     0          
O        O      0.666180000000     0.263690000000     0.166666666667     0          
O        O      0.688985000000     0.157255000000     0.296213333333     0          
O        O      0.731120000000     0.134845000000     0.235103333333     0          
O        O      0.662035000000     0.087965000000     0.257606666667     0          
O        O      0.735600000000     0.084745000000     0.296143333333     0          
O        O      0.714320000000     0.360530000000     0.000000000000     0          
O        O      0.700180000000     0.214170000000     0.220046666667     0          
O        O      0.736310000000     0.166180000000     0.166666666667     0          
O        O      0.842745000000     0.188985000000     0.296213333333     0          
O        O      0.865155000000     0.231120000000     0.235103333333     0          
O        O      0.912035000000     0.162035000000     0.257606666667     0          
O        O      0.915255000000     0.235600000000     0.296143333333     0          
O        O      0.639470000000     0.214320000000     0.000000000000     0          
O        O      0.785830000000     0.200180000000     0.220046666667     0          
O        O      0.833820000000     0.236310000000     0.166666666667     0          
O        O      0.938985000000     0.092745000000     0.296213333333     0          
O        O      0.981120000000     0.115155000000     0.235103333333     0          
O        O      0.985600000000     0.165255000000     0.296143333333     0          
O        O      0.950180000000     0.035830000000     0.220046666667     0          
O        O      0.907255000000     0.438985000000     0.296213333333     0          
O        O      0.884845000000     0.481120000000     0.235103333333     0          
O        O      0.834745000000     0.485600000000     0.296143333333     0          
O        O      0.964170000000     0.450180000000     0.220046666667     0          
O        O      0.561015000000     0.407255000000     0.296213333333     0          
O        O      0.518880000000     0.384845000000     0.235103333333     0          
O        O      0.514400000000     0.334745000000     0.296143333333     0          
O        O      0.549820000000     0.464170000000     0.220046666667     0          
O        O      0.592745000000     0.061015000000     0.296213333333     0          
O        O      0.615155000000     0.018880000000     0.235103333333     0          
O        O      0.665255000000     0.014400000000     0.296143333333     0          
O        O      0.535830000000     0.049820000000     0.220046666667     0          
O        O      0.688985000000     0.157255000000     0.037120000000     0          
O        O      0.731120000000     0.134845000000     0.098230000000     0          
O        O      0.735600000000     0.084745000000     0.037190000000     0          
O        O      0.700180000000     0.214170000000     0.113286666667     0          
O        O      0.842745000000     0.188985000000     0.037120000000     0          
O        O      0.865155000000     0.231120000000     0.098230000000     0          
O        O      0.915255000000     0.235600000000     0.037190000000     0          
O        O      0.785830000000     0.200180000000     0.113286666667     0          
O        O      0.811015000000     0.342745000000     0.037120000000     0          
O        O      0.768880000000     0.365155000000     0.098230000000     0          
O        O      0.764400000000     0.415255000000     0.037190000000     0          
O        O      0.799820000000     0.285830000000     0.113286666667     0          
O        O      0.657255000000     0.311015000000     0.037120000000     0          
O        O      0.634845000000     0.268880000000     0.098230000000     0          
O        O      0.584745000000     0.264400000000     0.037190000000     0          
O        O      0.714170000000     0.299820000000     0.113286666667     0          
O        O      0.561015000000     0.407255000000     0.370453333333     0          
O        O      0.518880000000     0.384845000000     0.431563333333     0          
O        O      0.587965000000     0.337965000000     0.409060000000     0          
O        O      0.514400000000     0.334745000000     0.370523333333     0          
O        O      0.535680000000     0.110530000000     0.333333333333     0          
O        O      0.554920000000     0.195080000000     0.333333333333     0          
O        O      0.619360000000     0.130640000000     0.333333333333     0          
O        O      0.549820000000     0.464170000000     0.446620000000     0          
O        O      0.513690000000     0.416180000000     0.500000000000     0          
O        O      0.592745000000     0.061015000000     0.370453333333     0          
O        O      0.615155000000     0.018880000000     0.431563333333     0          
O        O      0.662035000000     0.087965000000     0.409060000000     0          
O        O      0.665255000000     0.014400000000     0.370523333333     0          
O        O      0.889470000000     0.035680000000     0.333333333333     0          
O        O      0.804920000000     0.054920000000     0.333333333333     0          
O        O      0.869360000000     0.119360000000     0.333333333333     0          
O        O      0.535830000000     0.049820000000     0.446620000000     0          
O        O      0.583820000000     0.013690000000     0.500000000000     0          
O        O      0.938985000000     0.092745000000     0.370453333333     0          
O        O      0.981120000000     0.115155000000     0.431563333333     0          
O        O      0.912035000000     0.162035000000     0.409060000000     0          
O        O      0.985600000000     0.165255000000     0.370523333333     0          
O        O      0.964320000000     0.389470000000     0.333333333333     0          
O        O      0.945080000000     0.304920000000     0.333333333333     0          
O        O      0.880640000000     0.369360000000     0.333333333333     0          
O        O      0.950180000000     0.035830000000     0.446620000000     0          
O        O      0.986310000000     0.083820000000     0.500000000000     0          
O        O      0.907255000000     0.438985000000     0.370453333333     0          
O        O      0.884845000000     0.481120000000     0.431563333333     0          
O        O      0.837965000000     0.412035000000     0.409060000000     0          
O        O      0.834745000000     0.485600000000     0.370523333333     0          
O        O      0.610530000000     0.464320000000     0.333333333333     0          
O        O      0.695080000000     0.445080000000     0.333333333333     0          
O        O      0.630640000000     0.380640000000     0.333333333333     0          
O        O      0.964170000000     0.450180000000     0.446620000000     0          
O        O      0.916180000000     0.486310000000     0.500000000000     0          
O        O      0.811015000000     0.342745000000     0.629546666667     0          
O        O      0.768880000000     0.365155000000     0.568436666667     0          
O        O      0.837965000000     0.412035000000     0.590940000000     0          
O        O      0.764400000000     0.415255000000     0.629476666667     0          
O        O      0.785680000000     0.139470000000     0.333333333333     0          
O        O      0.799820000000     0.285830000000     0.553380000000     0          
O        O      0.763690000000     0.333820000000     0.500000000000     0          
O        O      0.657255000000     0.311015000000     0.629546666667     0          
O        O      0.634845000000     0.268880000000     0.568436666667     0          
O        O      0.587965000000     0.337965000000     0.590940000000     0          
O        O      0.584745000000     0.264400000000     0.629476666667     0          
O        O      0.860530000000     0.285680000000     0.333333333333     0          
O        O      0.714170000000     0.299820000000     0.553380000000     0          
O        O      0.666180000000     0.263690000000     0.500000000000     0          
O        O      0.688985000000     0.157255000000     0.629546666667     0          
O        O      0.731120000000     0.134845000000     0.568436666667     0          
O        O      0.662035000000     0.087965000000     0.590940000000     0          
O        O      0.735600000000     0.084745000000     0.629476666667     0          
O        O      0.714320000000     0.360530000000     0.333333333333     0          
O        O      0.700180000000     0.214170000000     0.553380000000     0          
O        O      0.736310000000     0.166180000000     0.500000000000     0          
O        O      0.842745000000     0.188985000000     0.629546666667     0          
O        O      0.865155000000     0.231120000000     0.568436666667     0          
O        O      0.912035000000     0.162035000000     0.590940000000     0          
O        O      0.915255000000     0.235600000000     0.629476666667     0          
O        O      0.639470000000     0.214320000000     0.333333333333     0          
O        O      0.785830000000     0.200180000000     0.553380000000     0          
O        O      0.833820000000     0.236310000000     0.500000000000     0          
O        O      0.938985000000     0.092745000000     0.629546666667     0          
O        O      0.981120000000     0.115155000000     0.568436666667     0          
O        O      0.985600000000     0.165255000000     0.629476666667     0          
O        O      0.950180000000     0.035830000000     0.553380000000     0          
O        O      0.907255000000     0.438985000000     0.629546666667     0          
O        O      0.884845000000     0.481120000000     0.568436666667     0          
O        O      0.834745000000     0.485600000000     0.629476666667     0          
O        O      0.964170000000     0.450180000000     0.553380000000     0          
O        O      0.561015000000     0.407255000000     0.629546666667     0          
O        O      0.518880000000     0.384845000000     0.568436666667     0          
O        O      0.514400000000     0.334745000000     0.629476666667     0          
O        O      0.549820000000     0.464170000000     0.553380000000     0          
O        O      0.592745000000     0.061015000000     0.629546666667     0          
O        O      0.615155000000     0.018880000000     0.568436666667     0          
O        O      0.665255000000     0.014400000000     0.629476666667     0          
O        O      0.535830000000     0.049820000000     0.553380000000     0          
O        O      0.688985000000     0.157255000000     0.370453333333     0          
O        O      0.731120000000     0.134845000000     0.431563333333     0          
O        O      0.735600000000     0.084745000000     0.370523333333     0          
O        O      0.700180000000     0.214170000000     0.446620000000     0          
O        O      0.842745000000     0.188985000000     0.370453333333     0          
O        O      0.865155000000     0.231120000000     0.431563333333     0          
O        O      0.915255000000     0.235600000000     0.370523333333     0          
O        O      0.785830000000     0.200180000000     0.446620000000     0          
O        O      0.811015000000     0.342745000000     0.370453333333     0          
O        O      0.768880000000     0.365155000000     0.431563333333     0          
O        O      0.764400000000     0.415255000000     0.370523333333     0          
O        O      0.799820000000     0.285830000000     0.446620000000     0          
O        O      0.657255000000     0.311015000000     0.370453333333     0          
O        O      0.634845000000     0.268880000000     0.431563333333     0          
O        O      0.584745000000     0.264400000000     0.370523333333     0          
O        O      0.714170000000     0.299820000000     0.446620000000     0          
O        O      0.561015000000     0.407255000000     0.703786666667     0          
O        O      0.518880000000     0.384845000000     0.764896666667     0          
O        O      0.587965000000     0.337965000000     0.742393333333     0          
O        O      0.514400000000     0.334745000000     0.703856666667     0          
O        O      0.535680000000     0.110530000000     0.666666666667     0          
O        O      0.554920000000     0.195080000000     0.666666666667     0          
O        O      0.619360000000     0.130640000000     0.666666666667     0          
O        O      0.549820000000     0.464170000000     0.779953333333     0          
O        O      0.513690000000     0.416180000000     0.833333333333     0          
O        O      0.592745000000     0.061015000000     0.703786666667     0          
O        O      0.615155000000     0.018880000000     0.764896666667     0          
O        O      0.662035000000     0.087965000000     0.742393333333     0          
O        O      0.665255000000     0.014400000000     0.703856666667     0          
O        O      0.889470000000     0.035680000000     0.666666666667     0          
O        O      0.804920000000     0.054920000000     0.666666666667     0          
O        O      0.869360000000     0.119360000000     0.666666666667     0          
O        O      0.535830000000     0.049820000000     0.779953333333     0          
O        O      0.583820000000     0.013690000000     0.833333333333     0          
O        O      0.938985000000     0.092745000000     0.703786666667     0          
O        O      0.981120000000     0.115155000000     0.764896666667     0          
O        O      0.912035000000     0.162035000000     0.742393333333     0          
O        O      0.985600000000     0.165255000000     0.703856666667     0          
O        O      0.964320000000     0.389470000000     0.666666666667     0          
O        O      0.945080000000     0.304920000000     0.666666666667     0          
O        O      0.880640000000     0.369360000000     0.666666666667     0          
O        O      0.950180000000     0.035830000000     0.779953333333     0          
O        O      0.986310000000     0.083820000000     0.833333333333     0          
O        O      0.907255000000     0.438985000000     0.703786666667     0          
O        O      0.884845000000     0.481120000000     0.764896666667     0          
O        O      0.837965000000     0.412035000000     0.742393333333     0          
O        O      0.834745000000     0.485600000000     0.703856666667     0          
O        O      0.610530000000     0.464320000000     0.666666666667     0          
O        O      0.695080000000     0.445080000000     0.666666666667     0          
O        O      0.630640000000     0.380640000000     0.666666666667     0          
O        O      0.964170000000     0.450180000000     0.779953333333     0          
O        O      0.916180000000     0.486310000000     0.833333333333     0          
O        O      0.811015000000     0.342745000000     0.962880000000     0          
O        O      0.768880000000     0.365155000000     0.901770000000     0          
O        O      0.837965000000     0.412035000000     0.924273333333     0          
O        O      0.764400000000     0.415255000000     0.962810000000     0          
O        O      0.785680000000     0.139470000000     0.666666666667     0          
O        O      0.799820000000     0.285830000000     0.886713333333     0          
O        O      0.763690000000     0.333820000000     0.833333333333     0          
O        O      0.657255000000     0.311015000000     0.962880000000     0          
O        O      0.634845000000     0.268880000000     0.901770000000     0          
O        O      0.587965000000     0.337965000000     0.924273333333     0          
O        O      0.584745000000     0.264400000000     0.962810000000     0          
O        O      0.860530000000     0.285680000000     0.666666666667     0          
O        O      0.714170000000     0.299820000000     0.886713333333     0          
O        O      0.666180000000     0.263690000000     0.833333333333     0          
O        O      0.688985000000     0.157255000000     0.962880000000     0          
O        O      0.731120000000     0.134845000000     0.901770000000     0          
O        O      0.662035000000     0.087965000000     0.924273333333     0          
O        O      0.735600000000     0.084745000000     0.962810000000     0          
O        O      0.714320000000     0.360530000000     0.666666666667     0          
O        O      0.700180000000     0.214170000000     0.886713333333     0          
O        O      0.736310000000     0.166180000000     0.833333333333     0          
O        O      0.842745000000     0.188985000000     0.962880000000     0          
O        O      0.865155000000     0.231120000000     0.901770000000     0          
O        O      0.912035000000     0.162035000000     0.924273333333     0          
O        O      0.915255000000     0.235600000000     0.962810000000     0          
O        O      0.639470000000     0.214320000000     0.666666666667     0          
O        O      0.785830000000     0.200180000000     0.886713333333     0          
O        O      0.833820000000     0.236310000000     0.833333333333     0          
O        O      0.938985000000     0.092745000000     0.962880000000     0          
O        O      0.981120000000     0.115155000000     0.901770000000     0          
O        O      0.985600000000     0.165255000000     0.962810000000     0          
O        O      0.950180000000     0.035830000000     0.886713333333     0          
O        O      0.907255000000     0.438985000000     0.962880000000     0          
O        O      0.884845000000     0.481120000000     0.901770000000     0          
O        O      0.834745000000     0.485600000000     0.962810000000     0          
O        O      0.964170000000     0.450180000000     0.886713333333     0          
O        O      0.561015000000     0.407255000000     0.962880000000     0          
O        O      0.518880000000     0.384845000000     0.901770000000     0          
O        O      0.514400000000     0.334745000000     0.962810000000     0          
O        O      0.549820000000     0.464170000000     0.886713333333     0          
O        O      0.592745000000     0.061015000000     0.962880000000     0          
O        O      0.615155000000     0.018880000000     0.901770000000     0          
O        O      0.665255000000     0.014400000000     0.962810000000     0          
O        O      0.535830000000     0.049820000000     0.886713333333     0          
O        O      0.688985000000     0.157255000000     0.703786666667     0          
O        O      0.731120000000     0.134845000000     0.764896666667     0          
O        O      0.735600000000     0.084745000000     0.703856666667     0          
O        O      0.700180000000     0.214170000000     0.779953333333     0          
O        O      0.842745000000     0.188985000000     0.703786666667     0          
O        O      0.865155000000     0.231120000000     0.764896666667     0          
O        O      0.915255000000     0.235600000000     0.703856666667     0          
O        O      0.785830000000     0.200180000000     0.779953333333     0          
O        O      0.811015000000     0.342745000000     0.703786666667     0          
O        O      0.768880000000     0.365155000000     0.764896666667     0          
O        O      0.764400000000     0.415255000000     0.703856666667     0          
O        O      0.799820000000     0.285830000000     0.779953333333     0          
O        O      0.657255000000     0.311015000000     0.703786666667     0          
O        O      0.634845000000     0.268880000000     0.764896666667     0          
O        O      0.584745000000     0.264400000000     0.703856666667     0          
O        O      0.714170000000     0.299820000000     0.779953333333     0          
O        O      0.561015000000     0.907255000000     0.037120000000     0          
O        O      0.518880000000     0.884845000000     0.098230000000     0          
O        O      0.587965000000     0.837965000000     0.075726666667     0          
O        O      0.514400000000     0.834745000000     0.037190000000     0          
O        O      0.535680000000     0.610530000000     0.000000000000     0          
O        O      0.554920000000     0.695080000000     0.000000000000     0          
O        O      0.619360000000     0.630640000000     0.000000000000     0          
O        O      0.549820000000     0.964170000000     0.113286666667     0          
O        O      0.513690000000     0.916180000000     0.166666666667     0          
O        O      0.592745000000     0.561015000000     0.037120000000     0          
O        O      0.615155000000     0.518880000000     0.098230000000     0          
O        O      0.662035000000     0.587965000000     0.075726666667     0          
O        O      0.665255000000     0.514400000000     0.037190000000     0          
O        O      0.889470000000     0.535680000000     0.000000000000     0          
O        O      0.804920000000     0.554920000000     0.000000000000     0          
O        O      0.869360000000     0.619360000000     0.000000000000     0          
O        O      0.535830000000     0.549820000000     0.113286666667     0          
O        O      0.583820000000     0.513690000000     0.166666666667     0          
O        O      0.938985000000     0.592745000000     0.037120000000     0          
O        O      0.981120000000     0.615155000000     0.098230000000     0          
O        O      0.912035000000     0.662035000000     0.075726666667     0          
O        O      0.985600000000     0.665255000000     0.037190000000     0          
O        O      0.964320000000     0.889470000000     0.000000000000     0          
O        O      0.945080000000     0.804920000000     0.000000000000     0          
O        O      0.880640000000     0.869360000000     0.000000000000     0          
O        O      0.950180000000     0.535830000000     0.113286666667     0          
O        O      0.986310000000     0.583820000000     0.166666666667     0          
O        O      0.907255000000     0.938985000000     0.037120000000     0          
O        O      0.884845000000     0.981120000000     0.098230000000     0          
O        O      0.837965000000     0.912035000000     0.075726666667     0          
O        O      0.834745000000     0.985600000000     0.037190000000     0          
O        O      0.610530000000     0.964320000000     0.000000000000     0          
O        O      0.695080000000     0.945080000000     0.000000000000     0          
O        O      0.630640000000     0.880640000000     0.000000000000     0          
O        O      0.964170000000     0.950180000000     0.113286666667     0          
O        O      0.916180000000     0.986310000000     0.166666666667     0          
O        O      0.811015000000     0.842745000000     0.296213333333     0          
O        O      0.768880000000     0.865155000000     0.235103333333     0          
O        O      0.837965000000     0.912035000000     0.257606666667     0          
O        O      0.764400000000     0.915255000000     0.296143333333     0          
O        O      0.785680000000     0.639470000000     0.000000000000     0          
O        O      0.799820000000     0.785830000000     0.220046666667     0          
O        O      0.763690000000     0.833820000000     0.166666666667     0          
O        O      0.657255000000     0.811015000000     0.296213333333     0          
O        O      0.634845000000     0.768880000000     0.235103333333     0          
O        O      0.587965000000     0.837965000000     0.257606666667     0          
O        O      0.584745000000     0.764400000000     0.296143333333     0          
O        O      0.860530000000     0.785680000000     0.000000000000     0          
O        O      0.714170000000     0.799820000000     0.220046666667     0          
O        O      0.666180000000     0.763690000000     0.166666666667     0          
O        O      0.688985000000     0.657255000000     0.296213333333     0          
O        O      0.731120000000     0.634845000000     0.235103333333     0          
O        O      0.662035000000     0.587965000000     0.257606666667     0          
O        O      0.735600000000     0.584745000000     0.296143333333     0          
O        O      0.714320000000     0.860530000000     0.000000000000     0          
O        O      0.700180000000     0.714170000000     0.220046666667     0          
O        O      0.736310000000     0.666180000000     0.166666666667     0          
O        O      0.842745000000     0.688985000000     0.296213333333     0          
O        O      0.865155000000     0.731120000000     0.235103333333     0          
O        O      0.912035000000     0.662035000000     0.257606666667     0          
O        O      0.915255000000     0.735600000000     0.296143333333     0          
O        O      0.639470000000     0.714320000000     0.000000000000     0          
O        O      0.785830000000     0.700180000000     0.220046666667     0          
O        O      0.833820000000     0.736310000000     0.166666666667     0          
O        O      0.938985000000     0.592745000000     0.296213333333     0          
O        O      0.981120000000     0.615155000000     0.235103333333     0          
O        O      0.985600000000     0.665255000000     0.296143333333     0          
O        O      0.950180000000     0.535830000000     0.220046666667     0          
O        O      0.907255000000     0.938985000000     0.296213333333     0          
O        O      0.884845000000     0.981120000000     0.235103333333     0          
O        O      0.834745000000     0.985600000000     0.296143333333     0          
O        O      0.964170000000     0.950180000000     0.220046666667     0          
O        O      0.561015000000     0.907255000000     0.296213333333     0          
O        O      0.518880000000     0.884845000000     0.235103333333     0          
O        O      0.514400000000     0.834745000000     0.296143333333     0          
O        O      0.549820000000     0.964170000000     0.220046666667     0          
O        O      0.592745000000     0.561015000000     0.296213333333     0          
O        O      0.615155000000     0.518880000000     0.235103333333     0          
O        O      0.665255000000     0.514400000000     0.296143333333     0          
O        O      0.535830000000     0.549820000000     0.220046666667     0          
O        O      0.688985000000     0.657255000000     0.037120000000     0          
O        O      0.731120000000     0.634845000000     0.098230000000     0          
O        O      0.735600000000     0.584745000000     0.037190000000     0          
O        O      0.700180000000     0.714170000000     0.113286666667     0          
O        O      0.842745000000     0.688985000000     0.037120000000     0          
O        O      0.865155000000     0.731120000000     0.098230000000     0          
O        O      0.915255000000     0.735600000000     0.037190000000     0          
O        O      0.785830000000     0.700180000000     0.113286666667     0          
O        O      0.811015000000     0.842745000000     0.037120000000     0          
O        O      0.768880000000     0.865155000000     0.098230000000     0          
O        O      0.764400000000     0.915255000000     0.037190000000     0          
O        O      0.799820000000     0.785830000000     0.113286666667     0          
O        O      0.657255000000     0.811015000000     0.037120000000     0          
O        O      0.634845000000     0.768880000000     0.098230000000     0          
O        O      0.584745000000     0.764400000000     0.037190000000     0          
O        O      0.714170000000     0.799820000000     0.113286666667     0          
O        O      0.561015000000     0.907255000000     0.370453333333     0          
O        O      0.518880000000     0.884845000000     0.431563333333     0          
O        O      0.587965000000     0.837965000000     0.409060000000     0          
O        O      0.514400000000     0.834745000000     0.370523333333     0          
O        O      0.535680000000     0.610530000000     0.333333333333     0          
O        O      0.554920000000     0.695080000000     0.333333333333     0          
O        O      0.619360000000     0.630640000000     0.333333333333     0          
O        O      0.549820000000     0.964170000000     0.446620000000     0          
O        O      0.513690000000     0.916180000000     0.500000000000     0          
O        O      0.592745000000     0.561015000000     0.370453333333     0          
O        O      0.615155000000     0.518880000000     0.431563333333     0          
O        O      0.662035000000     0.587965000000     0.409060000000     0          
O        O      0.665255000000     0.514400000000     0.370523333333     0          
O        O      0.889470000000     0.535680000000     0.333333333333     0          
O        O      0.804920000000     0.554920000000     0.333333333333     0          
O        O      0.869360000000     0.619360000000     0.333333333333     0          
O        O      0.535830000000     0.549820000000     0.446620000000     0          
O        O      0.583820000000     0.513690000000     0.500000000000     0          
O        O      0.938985000000     0.592745000000     0.370453333333     0          
O        O      0.981120000000     0.615155000000     0.431563333333     0          
O        O      0.912035000000     0.662035000000     0.409060000000     0          
O        O      0.985600000000     0.665255000000     0.370523333333     0          
O        O      0.964320000000     0.889470000000     0.333333333333     0          
O        O      0.945080000000     0.804920000000     0.333333333333     0          
O        O      0.880640000000     0.869360000000     0.333333333333     0          
O        O      0.950180000000     0.535830000000     0.446620000000     0          
O        O      0.986310000000     0.583820000000     0.500000000000     0          
O        O      0.907255000000     0.938985000000     0.370453333333     0          
O        O      0.884845000000     0.981120000000     0.431563333333     0          
O        O      0.837965000000     0.912035000000     0.409060000000     0          
O        O      0.834745000000     0.985600000000     0.370523333333     0          
O        O      0.610530000000     0.964320000000     0.333333333333     0          
O        O      0.695080000000     0.945080000000     0.333333333333     0          
O        O      0.630640000000     0.880640000000     0.333333333333     0          
O        O      0.964170000000     0.950180000000     0.446620000000     0          
O        O      0.916180000000     0.986310000000     0.500000000000     0          
O        O      0.811015000000     0.842745000000     0.629546666667     0          
O        O      0.768880000000     0.865155000000     0.568436666667     0          
O        O      0.837965000000     0.912035000000     0.590940000000     0          
O        O      0.764400000000     0.915255000000     0.629476666667     0          
O        O      0.785680000000     0.639470000000     0.333333333333     0          
O        O      0.799820000000     0.785830000000     0.553380000000     0          
O        O      0.763690000000     0.833820000000     0.500000000000     0          
O        O      0.657255000000     0.811015000000     0.629546666667     0          
O        O      0.634845000000     0.768880000000     0.568436666667     0          
O        O      0.587965000000     0.837965000000     0.590940000000     0          
O        O      0.584745000000     0.764400000000     0.629476666667     0          
O        O      0.860530000000     0.785680000000     0.333333333333     0          
O        O      0.714170000000     0.799820000000     0.553380000000     0          
O        O      0.666180000000     0.763690000000     0.500000000000     0          
O        O      0.688985000000     0.657255000000     0.629546666667     0          
O        O      0.731120000000     0.634845000000     0.568436666667     0          
O        O      0.662035000000     0.587965000000     0.590940000000     0          
O        O      0.735600000000     0.584745000000     0.629476666667     0          
O        O      0.714320000000     0.860530000000     0.333333333333     0          
O        O      0.700180000000     0.714170000000     0.553380000000     0          
O        O      0.736310000000     0.666180000000     0.500000000000     0          
O        O      0.842745000000     0.688985000000     0.629546666667     0          
O        O      0.865155000000     0.731120000000     0.568436666667     0          
O        O      0.912035000000     0.662035000000     0.590940000000     0          
O        O      0.915255000000     0.735600000000     0.629476666667     0          
O        O      0.639470000000     0.714320000000     0.333333333333     0          
O        O      0.785830000000     0.700180000000     0.553380000000     0          
O        O      0.833820000000     0.736310000000     0.500000000000     0          
O        O      0.938985000000     0.592745000000     0.629546666667     0          
O        O      0.981120000000     0.615155000000     0.568436666667     0          
O        O      0.985600000000     0.665255000000     0.629476666667     0          
O        O      0.950180000000     0.535830000000     0.553380000000     0          
O        O      0.907255000000     0.938985000000     0.629546666667     0          
O        O      0.884845000000     0.981120000000     0.568436666667     0          
O        O      0.834745000000     0.985600000000     0.629476666667     0          
O        O      0.964170000000     0.950180000000     0.553380000000     0          
O        O      0.561015000000     0.907255000000     0.629546666667     0          
O        O      0.518880000000     0.884845000000     0.568436666667     0          
O        O      0.514400000000     0.834745000000     0.629476666667     0          
O        O      0.549820000000     0.964170000000     0.553380000000     0          
O        O      0.592745000000     0.561015000000     0.629546666667     0          
O        O      0.615155000000     0.518880000000     0.568436666667     0          
O        O      0.665255000000     0.514400000000     0.629476666667     0          
O        O      0.535830000000     0.549820000000     0.553380000000     0          
O        O      0.688985000000     0.657255000000     0.370453333333     0          
O        O      0.731120000000     0.634845000000     0.431563333333     0          
O        O      0.735600000000     0.584745000000     0.370523333333     0          
O        O      0.700180000000     0.714170000000     0.446620000000     0          
O        O      0.842745000000     0.688985000000     0.370453333333     0          
O        O      0.865155000000     0.731120000000     0.431563333333     0          
O        O      0.915255000000     0.735600000000     0.370523333333     0          
O        O      0.785830000000     0.700180000000     0.446620000000     0          
O        O      0.811015000000     0.842745000000     0.370453333333     0          
O        O      0.768880000000     0.865155000000     0.431563333333     0          
O        O      0.764400000000     0.915255000000     0.370523333333     0          
O        O      0.799820000000     0.785830000000     0.446620000000     0          
O        O      0.657255000000     0.811015000000     0.370453333333     0          
O        O      0.634845000000     0.768880000000     0.431563333333     0          
O        O      0.584745000000     0.764400000000     0.370523333333     0          
O        O      0.714170000000     0.799820000000     0.446620000000     0          
O        O      0.561015000000     0.907255000000     0.703786666667     0          
O        O      0.518880000000     0.884845000000     0.764896666667     0          
O        O      0.587965000000     0.837965000000     0.742393333333     0          
O        O      0.514400000000     0.834745000000     0.703856666667     0          
O        O      0.535680000000     0.610530000000     0.666666666667     0          
O        O      0.554920000000     0.695080000000     0.666666666667     0          
O        O      0.619360000000     0.630640000000     0.666666666667     0          
O        O      0.549820000000     0.964170000000     0.779953333333     0          
O        O      0.513690000000     0.916180000000     0.833333333333     0          
O        O      0.592745000000     0.561015000000     0.703786666667     0          
O        O      0.615155000000     0.518880000000     0.764896666667     0          
O        O      0.662035000000     0.587965000000     0.742393333333     0          
O        O      0.665255000000     0.514400000000     0.703856666667     0          
O        O      0.889470000000     0.535680000000     0.666666666667     0          
O        O      0.804920000000     0.554920000000     0.666666666667     0          
O        O      0.869360000000     0.619360000000     0.666666666667     0          
O        O      0.535830000000     0.549820000000     0.779953333333     0          
O        O      0.583820000000     0.513690000000     0.833333333333     0          
O        O      0.938985000000     0.592745000000     0.703786666667     0          
O        O      0.981120000000     0.615155000000     0.764896666667     0          
O        O      0.912035000000     0.662035000000     0.742393333333     0          
O        O      0.985600000000     0.665255000000     0.703856666667     0          
O        O      0.964320000000     0.889470000000     0.666666666667     0          
O        O      0.945080000000     0.804920000000     0.666666666667     0          
O        O      0.880640000000     0.869360000000     0.666666666667     0          
O        O      0.950180000000     0.535830000000     0.779953333333     0          
O        O      0.986310000000     0.583820000000     0.833333333333     0          
O        O      0.907255000000     0.938985000000     0.703786666667     0          
O        O      0.884845000000     0.981120000000     0.764896666667     0          
O        O      0.837965000000     0.912035000000     0.742393333333     0          
O        O      0.834745000000     0.985600000000     0.703856666667     0          
O        O      0.610530000000     0.964320000000     0.666666666667     0          
O        O      0.695080000000     0.945080000000     0.666666666667     0          
O        O      0.630640000000     0.880640000000     0.666666666667     0          
O        O      0.964170000000     0.950180000000     0.779953333333     0          
O        O      0.916180000000     0.986310000000     0.833333333333     0          
O        O      0.811015000000     0.842745000000     0.962880000000     0          
O        O      0.768880000000     0.865155000000     0.901770000000     0          
O        O      0.837965000000     0.912035000000     0.924273333333     0          
O        O      0.764400000000     0.915255000000     0.962810000000     0          
O        O      0.785680000000     0.639470000000     0.666666666667     0          
O        O      0.799820000000     0.785830000000     0.886713333333     0          
O        O      0.763690000000     0.833820000000     0.833333333333     0          
O        O      0.657255000000     0.811015000000     0.962880000000     0          
O        O      0.634845000000     0.768880000000     0.901770000000     0          
O        O      0.587965000000     0.837965000000     0.924273333333     0          
O        O      0.584745000000     0.764400000000     0.962810000000     0          
O        O      0.860530000000     0.785680000000     0.666666666667     0          
O        O      0.714170000000     0.799820000000     0.886713333333     0          
O        O      0.666180000000     0.763690000000     0.833333333333     0          
O        O      0.688985000000     0.657255000000     0.962880000000     0          
O        O      0.731120000000     0.634845000000     0.901770000000     0          
O        O      0.662035000000     0.587965000000     0.924273333333     0          
O        O      0.735600000000     0.584745000000     0.962810000000     0          
O        O      0.714320000000     0.860530000000     0.666666666667     0          
O        O      0.700180000000     0.714170000000     0.886713333333     0          
O        O      0.736310000000     0.666180000000     0.833333333333     0          
O        O      0.842745000000     0.688985000000     0.962880000000     0          
O        O      0.865155000000     0.731120000000     0.901770000000     0          
O        O      0.912035000000     0.662035000000     0.924273333333     0          
O        O      0.915255000000     0.735600000000     0.962810000000     0          
O        O      0.639470000000     0.714320000000     0.666666666667     0          
O        O      0.785830000000     0.700180000000     0.886713333333     0          
O        O      0.833820000000     0.736310000000     0.833333333333     0          
O        O      0.938985000000     0.592745000000     0.962880000000     0          
O        O      0.981120000000     0.615155000000     0.901770000000     0          
O        O      0.985600000000     0.665255000000     0.962810000000     0          
O        O      0.950180000000     0.535830000000     0.886713333333     0          
O        O      0.907255000000     0.938985000000     0.962880000000     0          
O        O      0.884845000000     0.981120000000     0.901770000000     0          
O        O      0.834745000000     0.985600000000     0.962810000000     0          
O        O      0.964170000000     0.950180000000     0.886713333333     0          
O        O      0.561015000000     0.907255000000     0.962880000000     0          
O        O      0.518880000000     0.884845000000     0.901770000000     0          
O        O      0.514400000000     0.834745000000     0.962810000000     0          
O        O      0.549820000000     0.964170000000     0.886713333333     0          
O        O      0.592745000000     0.561015000000     0.962880000000     0          
O        O      0.615155000000     0.518880000000     0.901770000000     0          
O        O      0.665255000000     0.514400000000     0.962810000000     0          
O        O      0.535830000000     0.549820000000     0.886713333333     0          
O        O      0.688985000000     0.657255000000     0.703786666667     0          
O        O      0.731120000000     0.634845000000     0.764896666667     0          
O        O      0.735600000000     0.584745000000     0.703856666667     0          
O        O      0.700180000000     0.714170000000     0.779953333333     0          
O        O      0.842745000000     0.688985000000     0.703786666667     0          
O        O      0.865155000000     0.731120000000     0.764896666667     0          
O        O      0.915255000000     0.735600000000     0.703856666667     0          
O        O      0.785830000000     0.700180000000     0.779953333333     0          
O        O      0.811015000000     0.842745000000     0.703786666667     0          
O        O      0.768880000000     0.865155000000     0.764896666667     0          
O        O      0.764400000000     0.915255000000     0.703856666667     0          
O        O      0.799820000000     0.785830000000     0.779953333333     0          
O        O      0.657255000000     0.811015000000     0.703786666667     0          
O        O      0.634845000000     0.768880000000     0.764896666667     0          
O        O      0.584745000000     0.764400000000     0.703856666667     0          
O        O      0.714170000000     0.799820000000     0.779953333333     0          


