data_zeolite

_audit_creation_method RASPA-1.0
_audit_creation_date 2021-6-6
_audit_author_name ''

_cell_length_a    9.629
_cell_length_b    30.394
_cell_length_c    7.249
_cell_angle_alpha 90
_cell_angle_beta  90.45
_cell_angle_gamma 90
_cell_volume      25457.5

_symmetry_cell_setting          monoclinic
_symmetry_space_group_name_Hall 'P 1'
_symmetry_space_group_name_H-M  'P 1'
_symmetry_Int_Tables_number     1

_symmetry_equiv_pos_as_xyz 'x,y,z'

loop_
_atom_site_label
_atom_site_type_symbol
_atom_site_fract_x
_atom_site_fract_y
_atom_site_fract_z
_atom_site_charge
T        Si     0.040666666667     0.050300000000     0.216950000000     0          
T        Si     0.058900000000     0.157200000000     0.078075000000     0          
T        Si     0.053000000000     0.376000000000     0.010825000000     0          
T        Si     0.063933333333     0.298500000000     0.084475000000     0          
T        Si     0.326166666667     0.233900000000     0.052600000000     0          
T        Si     0.000000000000     0.083300000000     0.125000000000     0          
T        Si     0.292666666667     0.050300000000     0.033050000000     0          
T        Si     0.274433333333     0.157200000000     0.171925000000     0          
T        Si     0.280333333333     0.376000000000     0.239175000000     0          
T        Si     0.269400000000     0.298500000000     0.165525000000     0          
T        Si     0.007166666667     0.233900000000     0.197400000000     0          
T        Si     0.292666666667     0.949700000000     0.033050000000     0          
T        Si     0.274433333333     0.842800000000     0.171925000000     0          
T        Si     0.280333333333     0.624000000000     0.239175000000     0          
T        Si     0.269400000000     0.701500000000     0.165525000000     0          
T        Si     0.007166666667     0.766100000000     0.197400000000     0          
T        Si     0.000000000000     0.916700000000     0.125000000000     0          
T        Si     0.040666666667     0.949700000000     0.216950000000     0          
T        Si     0.058900000000     0.842800000000     0.078075000000     0          
T        Si     0.053000000000     0.624000000000     0.010825000000     0          
T        Si     0.063933333333     0.701500000000     0.084475000000     0          
T        Si     0.326166666667     0.766100000000     0.052600000000     0          
T        Si     0.207333333333     0.550300000000     0.216950000000     0          
T        Si     0.225566666667     0.657200000000     0.078075000000     0          
T        Si     0.219666666667     0.876000000000     0.010825000000     0          
T        Si     0.230600000000     0.798500000000     0.084475000000     0          
T        Si     0.159500000000     0.733900000000     0.052600000000     0          
T        Si     0.166666666667     0.583300000000     0.125000000000     0          
T        Si     0.126000000000     0.550300000000     0.033050000000     0          
T        Si     0.107766666667     0.657200000000     0.171925000000     0          
T        Si     0.113666666667     0.876000000000     0.239175000000     0          
T        Si     0.102733333333     0.798500000000     0.165525000000     0          
T        Si     0.173833333333     0.733900000000     0.197400000000     0          
T        Si     0.126000000000     0.449700000000     0.033050000000     0          
T        Si     0.107766666667     0.342800000000     0.171925000000     0          
T        Si     0.113666666667     0.124000000000     0.239175000000     0          
T        Si     0.102733333333     0.201500000000     0.165525000000     0          
T        Si     0.173833333333     0.266100000000     0.197400000000     0          
T        Si     0.166666666667     0.416700000000     0.125000000000     0          
T        Si     0.207333333333     0.449700000000     0.216950000000     0          
T        Si     0.225566666667     0.342800000000     0.078075000000     0          
T        Si     0.219666666667     0.124000000000     0.010825000000     0          
T        Si     0.230600000000     0.201500000000     0.084475000000     0          
T        Si     0.159500000000     0.266100000000     0.052600000000     0          
T        Si     0.040666666667     0.050300000000     0.466950000000     0          
T        Si     0.058900000000     0.157200000000     0.328075000000     0          
T        Si     0.053000000000     0.376000000000     0.260825000000     0          
T        Si     0.063933333333     0.298500000000     0.334475000000     0          
T        Si     0.326166666667     0.233900000000     0.302600000000     0          
T        Si     0.000000000000     0.083300000000     0.375000000000     0          
T        Si     0.292666666667     0.050300000000     0.283050000000     0          
T        Si     0.274433333333     0.157200000000     0.421925000000     0          
T        Si     0.280333333333     0.376000000000     0.489175000000     0          
T        Si     0.269400000000     0.298500000000     0.415525000000     0          
T        Si     0.007166666667     0.233900000000     0.447400000000     0          
T        Si     0.292666666667     0.949700000000     0.283050000000     0          
T        Si     0.274433333333     0.842800000000     0.421925000000     0          
T        Si     0.280333333333     0.624000000000     0.489175000000     0          
T        Si     0.269400000000     0.701500000000     0.415525000000     0          
T        Si     0.007166666667     0.766100000000     0.447400000000     0          
T        Si     0.000000000000     0.916700000000     0.375000000000     0          
T        Si     0.040666666667     0.949700000000     0.466950000000     0          
T        Si     0.058900000000     0.842800000000     0.328075000000     0          
T        Si     0.053000000000     0.624000000000     0.260825000000     0          
T        Si     0.063933333333     0.701500000000     0.334475000000     0          
T        Si     0.326166666667     0.766100000000     0.302600000000     0          
T        Si     0.207333333333     0.550300000000     0.466950000000     0          
T        Si     0.225566666667     0.657200000000     0.328075000000     0          
T        Si     0.219666666667     0.876000000000     0.260825000000     0          
T        Si     0.230600000000     0.798500000000     0.334475000000     0          
T        Si     0.159500000000     0.733900000000     0.302600000000     0          
T        Si     0.166666666667     0.583300000000     0.375000000000     0          
T        Si     0.126000000000     0.550300000000     0.283050000000     0          
T        Si     0.107766666667     0.657200000000     0.421925000000     0          
T        Si     0.113666666667     0.876000000000     0.489175000000     0          
T        Si     0.102733333333     0.798500000000     0.415525000000     0          
T        Si     0.173833333333     0.733900000000     0.447400000000     0          
T        Si     0.126000000000     0.449700000000     0.283050000000     0          
T        Si     0.107766666667     0.342800000000     0.421925000000     0          
T        Si     0.113666666667     0.124000000000     0.489175000000     0          
T        Si     0.102733333333     0.201500000000     0.415525000000     0          
T        Si     0.173833333333     0.266100000000     0.447400000000     0          
T        Si     0.166666666667     0.416700000000     0.375000000000     0          
T        Si     0.207333333333     0.449700000000     0.466950000000     0          
T        Si     0.225566666667     0.342800000000     0.328075000000     0          
T        Si     0.219666666667     0.124000000000     0.260825000000     0          
T        Si     0.230600000000     0.201500000000     0.334475000000     0          
T        Si     0.159500000000     0.266100000000     0.302600000000     0          
T        Si     0.040666666667     0.050300000000     0.716950000000     0          
T        Si     0.058900000000     0.157200000000     0.578075000000     0          
T        Si     0.053000000000     0.376000000000     0.510825000000     0          
T        Si     0.063933333333     0.298500000000     0.584475000000     0          
T        Si     0.326166666667     0.233900000000     0.552600000000     0          
T        Si     0.000000000000     0.083300000000     0.625000000000     0          
T        Si     0.292666666667     0.050300000000     0.533050000000     0          
T        Si     0.274433333333     0.157200000000     0.671925000000     0          
T        Si     0.280333333333     0.376000000000     0.739175000000     0          
T        Si     0.269400000000     0.298500000000     0.665525000000     0          
T        Si     0.007166666667     0.233900000000     0.697400000000     0          
T        Si     0.292666666667     0.949700000000     0.533050000000     0          
T        Si     0.274433333333     0.842800000000     0.671925000000     0          
T        Si     0.280333333333     0.624000000000     0.739175000000     0          
T        Si     0.269400000000     0.701500000000     0.665525000000     0          
T        Si     0.007166666667     0.766100000000     0.697400000000     0          
T        Si     0.000000000000     0.916700000000     0.625000000000     0          
T        Si     0.040666666667     0.949700000000     0.716950000000     0          
T        Si     0.058900000000     0.842800000000     0.578075000000     0          
T        Si     0.053000000000     0.624000000000     0.510825000000     0          
T        Si     0.063933333333     0.701500000000     0.584475000000     0          
T        Si     0.326166666667     0.766100000000     0.552600000000     0          
T        Si     0.207333333333     0.550300000000     0.716950000000     0          
T        Si     0.225566666667     0.657200000000     0.578075000000     0          
T        Si     0.219666666667     0.876000000000     0.510825000000     0          
T        Si     0.230600000000     0.798500000000     0.584475000000     0          
T        Si     0.159500000000     0.733900000000     0.552600000000     0          
T        Si     0.166666666667     0.583300000000     0.625000000000     0          
T        Si     0.126000000000     0.550300000000     0.533050000000     0          
T        Si     0.107766666667     0.657200000000     0.671925000000     0          
T        Si     0.113666666667     0.876000000000     0.739175000000     0          
T        Si     0.102733333333     0.798500000000     0.665525000000     0          
T        Si     0.173833333333     0.733900000000     0.697400000000     0          
T        Si     0.126000000000     0.449700000000     0.533050000000     0          
T        Si     0.107766666667     0.342800000000     0.671925000000     0          
T        Si     0.113666666667     0.124000000000     0.739175000000     0          
T        Si     0.102733333333     0.201500000000     0.665525000000     0          
T        Si     0.173833333333     0.266100000000     0.697400000000     0          
T        Si     0.166666666667     0.416700000000     0.625000000000     0          
T        Si     0.207333333333     0.449700000000     0.716950000000     0          
T        Si     0.225566666667     0.342800000000     0.578075000000     0          
T        Si     0.219666666667     0.124000000000     0.510825000000     0          
T        Si     0.230600000000     0.201500000000     0.584475000000     0          
T        Si     0.159500000000     0.266100000000     0.552600000000     0          
T        Si     0.040666666667     0.050300000000     0.966950000000     0          
T        Si     0.058900000000     0.157200000000     0.828075000000     0          
T        Si     0.053000000000     0.376000000000     0.760825000000     0          
T        Si     0.063933333333     0.298500000000     0.834475000000     0          
T        Si     0.326166666667     0.233900000000     0.802600000000     0          
T        Si     0.000000000000     0.083300000000     0.875000000000     0          
T        Si     0.292666666667     0.050300000000     0.783050000000     0          
T        Si     0.274433333333     0.157200000000     0.921925000000     0          
T        Si     0.280333333333     0.376000000000     0.989175000000     0          
T        Si     0.269400000000     0.298500000000     0.915525000000     0          
T        Si     0.007166666667     0.233900000000     0.947400000000     0          
T        Si     0.292666666667     0.949700000000     0.783050000000     0          
T        Si     0.274433333333     0.842800000000     0.921925000000     0          
T        Si     0.280333333333     0.624000000000     0.989175000000     0          
T        Si     0.269400000000     0.701500000000     0.915525000000     0          
T        Si     0.007166666667     0.766100000000     0.947400000000     0          
T        Si     0.000000000000     0.916700000000     0.875000000000     0          
T        Si     0.040666666667     0.949700000000     0.966950000000     0          
T        Si     0.058900000000     0.842800000000     0.828075000000     0          
T        Si     0.053000000000     0.624000000000     0.760825000000     0          
T        Si     0.063933333333     0.701500000000     0.834475000000     0          
T        Si     0.326166666667     0.766100000000     0.802600000000     0          
T        Si     0.207333333333     0.550300000000     0.966950000000     0          
T        Si     0.225566666667     0.657200000000     0.828075000000     0          
T        Si     0.219666666667     0.876000000000     0.760825000000     0          
T        Si     0.230600000000     0.798500000000     0.834475000000     0          
T        Si     0.159500000000     0.733900000000     0.802600000000     0          
T        Si     0.166666666667     0.583300000000     0.875000000000     0          
T        Si     0.126000000000     0.550300000000     0.783050000000     0          
T        Si     0.107766666667     0.657200000000     0.921925000000     0          
T        Si     0.113666666667     0.876000000000     0.989175000000     0          
T        Si     0.102733333333     0.798500000000     0.915525000000     0          
T        Si     0.173833333333     0.733900000000     0.947400000000     0          
T        Si     0.126000000000     0.449700000000     0.783050000000     0          
T        Si     0.107766666667     0.342800000000     0.921925000000     0          
T        Si     0.113666666667     0.124000000000     0.989175000000     0          
T        Si     0.102733333333     0.201500000000     0.915525000000     0          
T        Si     0.173833333333     0.266100000000     0.947400000000     0          
T        Si     0.166666666667     0.416700000000     0.875000000000     0          
T        Si     0.207333333333     0.449700000000     0.966950000000     0          
T        Si     0.225566666667     0.342800000000     0.828075000000     0          
T        Si     0.219666666667     0.124000000000     0.760825000000     0          
T        Si     0.230600000000     0.201500000000     0.834475000000     0          
T        Si     0.159500000000     0.266100000000     0.802600000000     0          
T        Si     0.374000000000     0.050300000000     0.216950000000     0          
T        Si     0.392233333333     0.157200000000     0.078075000000     0          
T        Si     0.386333333333     0.376000000000     0.010825000000     0          
T        Si     0.397266666667     0.298500000000     0.084475000000     0          
T        Si     0.659500000000     0.233900000000     0.052600000000     0          
T        Si     0.333333333333     0.083300000000     0.125000000000     0          
T        Si     0.626000000000     0.050300000000     0.033050000000     0          
T        Si     0.607766666667     0.157200000000     0.171925000000     0          
T        Si     0.613666666667     0.376000000000     0.239175000000     0          
T        Si     0.602733333333     0.298500000000     0.165525000000     0          
T        Si     0.340500000000     0.233900000000     0.197400000000     0          
T        Si     0.626000000000     0.949700000000     0.033050000000     0          
T        Si     0.607766666667     0.842800000000     0.171925000000     0          
T        Si     0.613666666667     0.624000000000     0.239175000000     0          
T        Si     0.602733333333     0.701500000000     0.165525000000     0          
T        Si     0.340500000000     0.766100000000     0.197400000000     0          
T        Si     0.333333333333     0.916700000000     0.125000000000     0          
T        Si     0.374000000000     0.949700000000     0.216950000000     0          
T        Si     0.392233333333     0.842800000000     0.078075000000     0          
T        Si     0.386333333333     0.624000000000     0.010825000000     0          
T        Si     0.397266666667     0.701500000000     0.084475000000     0          
T        Si     0.659500000000     0.766100000000     0.052600000000     0          
T        Si     0.540666666667     0.550300000000     0.216950000000     0          
T        Si     0.558900000000     0.657200000000     0.078075000000     0          
T        Si     0.553000000000     0.876000000000     0.010825000000     0          
T        Si     0.563933333333     0.798500000000     0.084475000000     0          
T        Si     0.492833333333     0.733900000000     0.052600000000     0          
T        Si     0.500000000000     0.583300000000     0.125000000000     0          
T        Si     0.459333333333     0.550300000000     0.033050000000     0          
T        Si     0.441100000000     0.657200000000     0.171925000000     0          
T        Si     0.447000000000     0.876000000000     0.239175000000     0          
T        Si     0.436066666667     0.798500000000     0.165525000000     0          
T        Si     0.507166666667     0.733900000000     0.197400000000     0          
T        Si     0.459333333333     0.449700000000     0.033050000000     0          
T        Si     0.441100000000     0.342800000000     0.171925000000     0          
T        Si     0.447000000000     0.124000000000     0.239175000000     0          
T        Si     0.436066666667     0.201500000000     0.165525000000     0          
T        Si     0.507166666667     0.266100000000     0.197400000000     0          
T        Si     0.500000000000     0.416700000000     0.125000000000     0          
T        Si     0.540666666667     0.449700000000     0.216950000000     0          
T        Si     0.558900000000     0.342800000000     0.078075000000     0          
T        Si     0.553000000000     0.124000000000     0.010825000000     0          
T        Si     0.563933333333     0.201500000000     0.084475000000     0          
T        Si     0.492833333333     0.266100000000     0.052600000000     0          
T        Si     0.374000000000     0.050300000000     0.466950000000     0          
T        Si     0.392233333333     0.157200000000     0.328075000000     0          
T        Si     0.386333333333     0.376000000000     0.260825000000     0          
T        Si     0.397266666667     0.298500000000     0.334475000000     0          
T        Si     0.659500000000     0.233900000000     0.302600000000     0          
T        Si     0.333333333333     0.083300000000     0.375000000000     0          
T        Si     0.626000000000     0.050300000000     0.283050000000     0          
T        Si     0.607766666667     0.157200000000     0.421925000000     0          
T        Si     0.613666666667     0.376000000000     0.489175000000     0          
T        Si     0.602733333333     0.298500000000     0.415525000000     0          
T        Si     0.340500000000     0.233900000000     0.447400000000     0          
T        Si     0.626000000000     0.949700000000     0.283050000000     0          
T        Si     0.607766666667     0.842800000000     0.421925000000     0          
T        Si     0.613666666667     0.624000000000     0.489175000000     0          
T        Si     0.602733333333     0.701500000000     0.415525000000     0          
T        Si     0.340500000000     0.766100000000     0.447400000000     0          
T        Si     0.333333333333     0.916700000000     0.375000000000     0          
T        Si     0.374000000000     0.949700000000     0.466950000000     0          
T        Si     0.392233333333     0.842800000000     0.328075000000     0          
T        Si     0.386333333333     0.624000000000     0.260825000000     0          
T        Si     0.397266666667     0.701500000000     0.334475000000     0          
T        Si     0.659500000000     0.766100000000     0.302600000000     0          
T        Si     0.540666666667     0.550300000000     0.466950000000     0          
T        Si     0.558900000000     0.657200000000     0.328075000000     0          
T        Si     0.553000000000     0.876000000000     0.260825000000     0          
T        Si     0.563933333333     0.798500000000     0.334475000000     0          
T        Si     0.492833333333     0.733900000000     0.302600000000     0          
T        Si     0.500000000000     0.583300000000     0.375000000000     0          
T        Si     0.459333333333     0.550300000000     0.283050000000     0          
T        Si     0.441100000000     0.657200000000     0.421925000000     0          
T        Si     0.447000000000     0.876000000000     0.489175000000     0          
T        Si     0.436066666667     0.798500000000     0.415525000000     0          
T        Si     0.507166666667     0.733900000000     0.447400000000     0          
T        Si     0.459333333333     0.449700000000     0.283050000000     0          
T        Si     0.441100000000     0.342800000000     0.421925000000     0          
T        Si     0.447000000000     0.124000000000     0.489175000000     0          
T        Si     0.436066666667     0.201500000000     0.415525000000     0          
T        Si     0.507166666667     0.266100000000     0.447400000000     0          
T        Si     0.500000000000     0.416700000000     0.375000000000     0          
T        Si     0.540666666667     0.449700000000     0.466950000000     0          
T        Si     0.558900000000     0.342800000000     0.328075000000     0          
T        Si     0.553000000000     0.124000000000     0.260825000000     0          
T        Si     0.563933333333     0.201500000000     0.334475000000     0          
T        Si     0.492833333333     0.266100000000     0.302600000000     0          
T        Si     0.374000000000     0.050300000000     0.716950000000     0          
T        Si     0.392233333333     0.157200000000     0.578075000000     0          
T        Si     0.386333333333     0.376000000000     0.510825000000     0          
T        Si     0.397266666667     0.298500000000     0.584475000000     0          
T        Si     0.659500000000     0.233900000000     0.552600000000     0          
T        Si     0.333333333333     0.083300000000     0.625000000000     0          
T        Si     0.626000000000     0.050300000000     0.533050000000     0          
T        Si     0.607766666667     0.157200000000     0.671925000000     0          
T        Si     0.613666666667     0.376000000000     0.739175000000     0          
T        Si     0.602733333333     0.298500000000     0.665525000000     0          
T        Si     0.340500000000     0.233900000000     0.697400000000     0          
T        Si     0.626000000000     0.949700000000     0.533050000000     0          
T        Si     0.607766666667     0.842800000000     0.671925000000     0          
T        Si     0.613666666667     0.624000000000     0.739175000000     0          
T        Si     0.602733333333     0.701500000000     0.665525000000     0          
T        Si     0.340500000000     0.766100000000     0.697400000000     0          
T        Si     0.333333333333     0.916700000000     0.625000000000     0          
T        Si     0.374000000000     0.949700000000     0.716950000000     0          
T        Si     0.392233333333     0.842800000000     0.578075000000     0          
T        Si     0.386333333333     0.624000000000     0.510825000000     0          
T        Si     0.397266666667     0.701500000000     0.584475000000     0          
T        Si     0.659500000000     0.766100000000     0.552600000000     0          
T        Si     0.540666666667     0.550300000000     0.716950000000     0          
T        Si     0.558900000000     0.657200000000     0.578075000000     0          
T        Si     0.553000000000     0.876000000000     0.510825000000     0          
T        Si     0.563933333333     0.798500000000     0.584475000000     0          
T        Si     0.492833333333     0.733900000000     0.552600000000     0          
T        Si     0.500000000000     0.583300000000     0.625000000000     0          
T        Si     0.459333333333     0.550300000000     0.533050000000     0          
T        Si     0.441100000000     0.657200000000     0.671925000000     0          
T        Si     0.447000000000     0.876000000000     0.739175000000     0          
T        Si     0.436066666667     0.798500000000     0.665525000000     0          
T        Si     0.507166666667     0.733900000000     0.697400000000     0          
T        Si     0.459333333333     0.449700000000     0.533050000000     0          
T        Si     0.441100000000     0.342800000000     0.671925000000     0          
T        Si     0.447000000000     0.124000000000     0.739175000000     0          
T        Si     0.436066666667     0.201500000000     0.665525000000     0          
T        Si     0.507166666667     0.266100000000     0.697400000000     0          
T        Si     0.500000000000     0.416700000000     0.625000000000     0          
T        Si     0.540666666667     0.449700000000     0.716950000000     0          
T        Si     0.558900000000     0.342800000000     0.578075000000     0          
T        Si     0.553000000000     0.124000000000     0.510825000000     0          
T        Si     0.563933333333     0.201500000000     0.584475000000     0          
T        Si     0.492833333333     0.266100000000     0.552600000000     0          
T        Si     0.374000000000     0.050300000000     0.966950000000     0          
T        Si     0.392233333333     0.157200000000     0.828075000000     0          
T        Si     0.386333333333     0.376000000000     0.760825000000     0          
T        Si     0.397266666667     0.298500000000     0.834475000000     0          
T        Si     0.659500000000     0.233900000000     0.802600000000     0          
T        Si     0.333333333333     0.083300000000     0.875000000000     0          
T        Si     0.626000000000     0.050300000000     0.783050000000     0          
T        Si     0.607766666667     0.157200000000     0.921925000000     0          
T        Si     0.613666666667     0.376000000000     0.989175000000     0          
T        Si     0.602733333333     0.298500000000     0.915525000000     0          
T        Si     0.340500000000     0.233900000000     0.947400000000     0          
T        Si     0.626000000000     0.949700000000     0.783050000000     0          
T        Si     0.607766666667     0.842800000000     0.921925000000     0          
T        Si     0.613666666667     0.624000000000     0.989175000000     0          
T        Si     0.602733333333     0.701500000000     0.915525000000     0          
T        Si     0.340500000000     0.766100000000     0.947400000000     0          
T        Si     0.333333333333     0.916700000000     0.875000000000     0          
T        Si     0.374000000000     0.949700000000     0.966950000000     0          
T        Si     0.392233333333     0.842800000000     0.828075000000     0          
T        Si     0.386333333333     0.624000000000     0.760825000000     0          
T        Si     0.397266666667     0.701500000000     0.834475000000     0          
T        Si     0.659500000000     0.766100000000     0.802600000000     0          
T        Si     0.540666666667     0.550300000000     0.966950000000     0          
T        Si     0.558900000000     0.657200000000     0.828075000000     0          
T        Si     0.553000000000     0.876000000000     0.760825000000     0          
T        Si     0.563933333333     0.798500000000     0.834475000000     0          
T        Si     0.492833333333     0.733900000000     0.802600000000     0          
T        Si     0.500000000000     0.583300000000     0.875000000000     0          
T        Si     0.459333333333     0.550300000000     0.783050000000     0          
T        Si     0.441100000000     0.657200000000     0.921925000000     0          
T        Si     0.447000000000     0.876000000000     0.989175000000     0          
T        Si     0.436066666667     0.798500000000     0.915525000000     0          
T        Si     0.507166666667     0.733900000000     0.947400000000     0          
T        Si     0.459333333333     0.449700000000     0.783050000000     0          
T        Si     0.441100000000     0.342800000000     0.921925000000     0          
T        Si     0.447000000000     0.124000000000     0.989175000000     0          
T        Si     0.436066666667     0.201500000000     0.915525000000     0          
T        Si     0.507166666667     0.266100000000     0.947400000000     0          
T        Si     0.500000000000     0.416700000000     0.875000000000     0          
T        Si     0.540666666667     0.449700000000     0.966950000000     0          
T        Si     0.558900000000     0.342800000000     0.828075000000     0          
T        Si     0.553000000000     0.124000000000     0.760825000000     0          
T        Si     0.563933333333     0.201500000000     0.834475000000     0          
T        Si     0.492833333333     0.266100000000     0.802600000000     0          
T        Si     0.707333333333     0.050300000000     0.216950000000     0          
T        Si     0.725566666667     0.157200000000     0.078075000000     0          
T        Si     0.719666666667     0.376000000000     0.010825000000     0          
T        Si     0.730600000000     0.298500000000     0.084475000000     0          
T        Si     0.992833333333     0.233900000000     0.052600000000     0          
T        Si     0.666666666667     0.083300000000     0.125000000000     0          
T        Si     0.959333333333     0.050300000000     0.033050000000     0          
T        Si     0.941100000000     0.157200000000     0.171925000000     0          
T        Si     0.947000000000     0.376000000000     0.239175000000     0          
T        Si     0.936066666667     0.298500000000     0.165525000000     0          
T        Si     0.673833333333     0.233900000000     0.197400000000     0          
T        Si     0.959333333333     0.949700000000     0.033050000000     0          
T        Si     0.941100000000     0.842800000000     0.171925000000     0          
T        Si     0.947000000000     0.624000000000     0.239175000000     0          
T        Si     0.936066666667     0.701500000000     0.165525000000     0          
T        Si     0.673833333333     0.766100000000     0.197400000000     0          
T        Si     0.666666666667     0.916700000000     0.125000000000     0          
T        Si     0.707333333333     0.949700000000     0.216950000000     0          
T        Si     0.725566666667     0.842800000000     0.078075000000     0          
T        Si     0.719666666667     0.624000000000     0.010825000000     0          
T        Si     0.730600000000     0.701500000000     0.084475000000     0          
T        Si     0.992833333333     0.766100000000     0.052600000000     0          
T        Si     0.874000000000     0.550300000000     0.216950000000     0          
T        Si     0.892233333333     0.657200000000     0.078075000000     0          
T        Si     0.886333333333     0.876000000000     0.010825000000     0          
T        Si     0.897266666667     0.798500000000     0.084475000000     0          
T        Si     0.826166666667     0.733900000000     0.052600000000     0          
T        Si     0.833333333333     0.583300000000     0.125000000000     0          
T        Si     0.792666666667     0.550300000000     0.033050000000     0          
T        Si     0.774433333333     0.657200000000     0.171925000000     0          
T        Si     0.780333333333     0.876000000000     0.239175000000     0          
T        Si     0.769400000000     0.798500000000     0.165525000000     0          
T        Si     0.840500000000     0.733900000000     0.197400000000     0          
T        Si     0.792666666667     0.449700000000     0.033050000000     0          
T        Si     0.774433333333     0.342800000000     0.171925000000     0          
T        Si     0.780333333333     0.124000000000     0.239175000000     0          
T        Si     0.769400000000     0.201500000000     0.165525000000     0          
T        Si     0.840500000000     0.266100000000     0.197400000000     0          
T        Si     0.833333333333     0.416700000000     0.125000000000     0          
T        Si     0.874000000000     0.449700000000     0.216950000000     0          
T        Si     0.892233333333     0.342800000000     0.078075000000     0          
T        Si     0.886333333333     0.124000000000     0.010825000000     0          
T        Si     0.897266666667     0.201500000000     0.084475000000     0          
T        Si     0.826166666667     0.266100000000     0.052600000000     0          
T        Si     0.707333333333     0.050300000000     0.466950000000     0          
T        Si     0.725566666667     0.157200000000     0.328075000000     0          
T        Si     0.719666666667     0.376000000000     0.260825000000     0          
T        Si     0.730600000000     0.298500000000     0.334475000000     0          
T        Si     0.992833333333     0.233900000000     0.302600000000     0          
T        Si     0.666666666667     0.083300000000     0.375000000000     0          
T        Si     0.959333333333     0.050300000000     0.283050000000     0          
T        Si     0.941100000000     0.157200000000     0.421925000000     0          
T        Si     0.947000000000     0.376000000000     0.489175000000     0          
T        Si     0.936066666667     0.298500000000     0.415525000000     0          
T        Si     0.673833333333     0.233900000000     0.447400000000     0          
T        Si     0.959333333333     0.949700000000     0.283050000000     0          
T        Si     0.941100000000     0.842800000000     0.421925000000     0          
T        Si     0.947000000000     0.624000000000     0.489175000000     0          
T        Si     0.936066666667     0.701500000000     0.415525000000     0          
T        Si     0.673833333333     0.766100000000     0.447400000000     0          
T        Si     0.666666666667     0.916700000000     0.375000000000     0          
T        Si     0.707333333333     0.949700000000     0.466950000000     0          
T        Si     0.725566666667     0.842800000000     0.328075000000     0          
T        Si     0.719666666667     0.624000000000     0.260825000000     0          
T        Si     0.730600000000     0.701500000000     0.334475000000     0          
T        Si     0.992833333333     0.766100000000     0.302600000000     0          
T        Si     0.874000000000     0.550300000000     0.466950000000     0          
T        Si     0.892233333333     0.657200000000     0.328075000000     0          
T        Si     0.886333333333     0.876000000000     0.260825000000     0          
T        Si     0.897266666667     0.798500000000     0.334475000000     0          
T        Si     0.826166666667     0.733900000000     0.302600000000     0          
T        Si     0.833333333333     0.583300000000     0.375000000000     0          
T        Si     0.792666666667     0.550300000000     0.283050000000     0          
T        Si     0.774433333333     0.657200000000     0.421925000000     0          
T        Si     0.780333333333     0.876000000000     0.489175000000     0          
T        Si     0.769400000000     0.798500000000     0.415525000000     0          
T        Si     0.840500000000     0.733900000000     0.447400000000     0          
T        Si     0.792666666667     0.449700000000     0.283050000000     0          
T        Si     0.774433333333     0.342800000000     0.421925000000     0          
T        Si     0.780333333333     0.124000000000     0.489175000000     0          
T        Si     0.769400000000     0.201500000000     0.415525000000     0          
T        Si     0.840500000000     0.266100000000     0.447400000000     0          
T        Si     0.833333333333     0.416700000000     0.375000000000     0          
T        Si     0.874000000000     0.449700000000     0.466950000000     0          
T        Si     0.892233333333     0.342800000000     0.328075000000     0          
T        Si     0.886333333333     0.124000000000     0.260825000000     0          
T        Si     0.897266666667     0.201500000000     0.334475000000     0          
T        Si     0.826166666667     0.266100000000     0.302600000000     0          
T        Si     0.707333333333     0.050300000000     0.716950000000     0          
T        Si     0.725566666667     0.157200000000     0.578075000000     0          
T        Si     0.719666666667     0.376000000000     0.510825000000     0          
T        Si     0.730600000000     0.298500000000     0.584475000000     0          
T        Si     0.992833333333     0.233900000000     0.552600000000     0          
T        Si     0.666666666667     0.083300000000     0.625000000000     0          
T        Si     0.959333333333     0.050300000000     0.533050000000     0          
T        Si     0.941100000000     0.157200000000     0.671925000000     0          
T        Si     0.947000000000     0.376000000000     0.739175000000     0          
T        Si     0.936066666667     0.298500000000     0.665525000000     0          
T        Si     0.673833333333     0.233900000000     0.697400000000     0          
T        Si     0.959333333333     0.949700000000     0.533050000000     0          
T        Si     0.941100000000     0.842800000000     0.671925000000     0          
T        Si     0.947000000000     0.624000000000     0.739175000000     0          
T        Si     0.936066666667     0.701500000000     0.665525000000     0          
T        Si     0.673833333333     0.766100000000     0.697400000000     0          
T        Si     0.666666666667     0.916700000000     0.625000000000     0          
T        Si     0.707333333333     0.949700000000     0.716950000000     0          
T        Si     0.725566666667     0.842800000000     0.578075000000     0          
T        Si     0.719666666667     0.624000000000     0.510825000000     0          
T        Si     0.730600000000     0.701500000000     0.584475000000     0          
T        Si     0.992833333333     0.766100000000     0.552600000000     0          
T        Si     0.874000000000     0.550300000000     0.716950000000     0          
T        Si     0.892233333333     0.657200000000     0.578075000000     0          
T        Si     0.886333333333     0.876000000000     0.510825000000     0          
T        Si     0.897266666667     0.798500000000     0.584475000000     0          
T        Si     0.826166666667     0.733900000000     0.552600000000     0          
T        Si     0.833333333333     0.583300000000     0.625000000000     0          
T        Si     0.792666666667     0.550300000000     0.533050000000     0          
T        Si     0.774433333333     0.657200000000     0.671925000000     0          
T        Si     0.780333333333     0.876000000000     0.739175000000     0          
T        Si     0.769400000000     0.798500000000     0.665525000000     0          
T        Si     0.840500000000     0.733900000000     0.697400000000     0          
T        Si     0.792666666667     0.449700000000     0.533050000000     0          
T        Si     0.774433333333     0.342800000000     0.671925000000     0          
T        Si     0.780333333333     0.124000000000     0.739175000000     0          
T        Si     0.769400000000     0.201500000000     0.665525000000     0          
T        Si     0.840500000000     0.266100000000     0.697400000000     0          
T        Si     0.833333333333     0.416700000000     0.625000000000     0          
T        Si     0.874000000000     0.449700000000     0.716950000000     0          
T        Si     0.892233333333     0.342800000000     0.578075000000     0          
T        Si     0.886333333333     0.124000000000     0.510825000000     0          
T        Si     0.897266666667     0.201500000000     0.584475000000     0          
T        Si     0.826166666667     0.266100000000     0.552600000000     0          
T        Si     0.707333333333     0.050300000000     0.966950000000     0          
T        Si     0.725566666667     0.157200000000     0.828075000000     0          
T        Si     0.719666666667     0.376000000000     0.760825000000     0          
T        Si     0.730600000000     0.298500000000     0.834475000000     0          
T        Si     0.992833333333     0.233900000000     0.802600000000     0          
T        Si     0.666666666667     0.083300000000     0.875000000000     0          
T        Si     0.959333333333     0.050300000000     0.783050000000     0          
T        Si     0.941100000000     0.157200000000     0.921925000000     0          
T        Si     0.947000000000     0.376000000000     0.989175000000     0          
T        Si     0.936066666667     0.298500000000     0.915525000000     0          
T        Si     0.673833333333     0.233900000000     0.947400000000     0          
T        Si     0.959333333333     0.949700000000     0.783050000000     0          
T        Si     0.941100000000     0.842800000000     0.921925000000     0          
T        Si     0.947000000000     0.624000000000     0.989175000000     0          
T        Si     0.936066666667     0.701500000000     0.915525000000     0          
T        Si     0.673833333333     0.766100000000     0.947400000000     0          
T        Si     0.666666666667     0.916700000000     0.875000000000     0          
T        Si     0.707333333333     0.949700000000     0.966950000000     0          
T        Si     0.725566666667     0.842800000000     0.828075000000     0          
T        Si     0.719666666667     0.624000000000     0.760825000000     0          
T        Si     0.730600000000     0.701500000000     0.834475000000     0          
T        Si     0.992833333333     0.766100000000     0.802600000000     0          
T        Si     0.874000000000     0.550300000000     0.966950000000     0          
T        Si     0.892233333333     0.657200000000     0.828075000000     0          
T        Si     0.886333333333     0.876000000000     0.760825000000     0          
T        Si     0.897266666667     0.798500000000     0.834475000000     0          
T        Si     0.826166666667     0.733900000000     0.802600000000     0          
T        Si     0.833333333333     0.583300000000     0.875000000000     0          
T        Si     0.792666666667     0.550300000000     0.783050000000     0          
T        Si     0.774433333333     0.657200000000     0.921925000000     0          
T        Si     0.780333333333     0.876000000000     0.989175000000     0          
T        Si     0.769400000000     0.798500000000     0.915525000000     0          
T        Si     0.840500000000     0.733900000000     0.947400000000     0          
T        Si     0.792666666667     0.449700000000     0.783050000000     0          
T        Si     0.774433333333     0.342800000000     0.921925000000     0          
T        Si     0.780333333333     0.124000000000     0.989175000000     0          
T        Si     0.769400000000     0.201500000000     0.915525000000     0          
T        Si     0.840500000000     0.266100000000     0.947400000000     0          
T        Si     0.833333333333     0.416700000000     0.875000000000     0          
T        Si     0.874000000000     0.449700000000     0.966950000000     0          
T        Si     0.892233333333     0.342800000000     0.828075000000     0          
T        Si     0.886333333333     0.124000000000     0.760825000000     0          
T        Si     0.897266666667     0.201500000000     0.834475000000     0          
T        Si     0.826166666667     0.266100000000     0.802600000000     0          
O        O      0.090766666667     0.144100000000     0.034925000000     0          
O        O      0.015733333333     0.186100000000     0.059975000000     0          
O        O      0.089100000000     0.185600000000     0.114275000000     0          
O        O      0.039666666667     0.113500000000     0.102725000000     0          
O        O      0.000000000000     0.389000000000     0.000000000000     0          
O        O      0.054966666667     0.340500000000     0.051925000000     0          
O        O      0.080666666667     0.419600000000     0.026400000000     0          
O        O      0.052833333333     0.000000000000     0.229825000000     0          
O        O      0.000000000000     0.067600000000     0.000000000000     0          
O        O      0.023066666667     0.052600000000     0.164200000000     0          
O        O      0.017633333333     0.269000000000     0.086250000000     0          
O        O      0.105100000000     0.268900000000     0.063775000000     0          
O        O      0.000000000000     0.249200000000     0.000000000000     0          
O        O      0.242566666667     0.144100000000     0.215075000000     0          
O        O      0.317600000000     0.186100000000     0.190025000000     0          
O        O      0.244233333333     0.185600000000     0.135725000000     0          
O        O      0.293666666667     0.113500000000     0.147275000000     0          
O        O      0.278366666667     0.340500000000     0.198075000000     0          
O        O      0.252666666667     0.419600000000     0.223600000000     0          
O        O      0.280500000000     0.000000000000     0.020175000000     0          
O        O      0.310266666667     0.052600000000     0.085800000000     0          
O        O      0.315700000000     0.269000000000     0.163750000000     0          
O        O      0.228233333333     0.268900000000     0.186225000000     0          
O        O      0.242566666667     0.855900000000     0.215075000000     0          
O        O      0.317600000000     0.813900000000     0.190025000000     0          
O        O      0.244233333333     0.814400000000     0.135725000000     0          
O        O      0.293666666667     0.886500000000     0.147275000000     0          
O        O      0.000000000000     0.611000000000     0.000000000000     0          
O        O      0.278366666667     0.659500000000     0.198075000000     0          
O        O      0.252666666667     0.580400000000     0.223600000000     0          
O        O      0.000000000000     0.932400000000     0.000000000000     0          
O        O      0.310266666667     0.947400000000     0.085800000000     0          
O        O      0.315700000000     0.731000000000     0.163750000000     0          
O        O      0.228233333333     0.731100000000     0.186225000000     0          
O        O      0.000000000000     0.750800000000     0.000000000000     0          
O        O      0.090766666667     0.855900000000     0.034925000000     0          
O        O      0.015733333333     0.813900000000     0.059975000000     0          
O        O      0.089100000000     0.814400000000     0.114275000000     0          
O        O      0.039666666667     0.886500000000     0.102725000000     0          
O        O      0.054966666667     0.659500000000     0.051925000000     0          
O        O      0.080666666667     0.580400000000     0.026400000000     0          
O        O      0.023066666667     0.947400000000     0.164200000000     0          
O        O      0.017633333333     0.731000000000     0.086250000000     0          
O        O      0.105100000000     0.731100000000     0.063775000000     0          
O        O      0.257433333333     0.644100000000     0.034925000000     0          
O        O      0.182400000000     0.686100000000     0.059975000000     0          
O        O      0.255766666667     0.685600000000     0.114275000000     0          
O        O      0.206333333333     0.613500000000     0.102725000000     0          
O        O      0.166666666667     0.889000000000     0.000000000000     0          
O        O      0.221633333333     0.840500000000     0.051925000000     0          
O        O      0.247333333333     0.919600000000     0.026400000000     0          
O        O      0.219500000000     0.500000000000     0.229825000000     0          
O        O      0.166666666667     0.567600000000     0.000000000000     0          
O        O      0.189733333333     0.552600000000     0.164200000000     0          
O        O      0.184300000000     0.769000000000     0.086250000000     0          
O        O      0.271766666667     0.768900000000     0.063775000000     0          
O        O      0.166666666667     0.749200000000     0.000000000000     0          
O        O      0.075900000000     0.644100000000     0.215075000000     0          
O        O      0.150933333333     0.686100000000     0.190025000000     0          
O        O      0.077566666667     0.685600000000     0.135725000000     0          
O        O      0.127000000000     0.613500000000     0.147275000000     0          
O        O      0.111700000000     0.840500000000     0.198075000000     0          
O        O      0.086000000000     0.919600000000     0.223600000000     0          
O        O      0.113833333333     0.500000000000     0.020175000000     0          
O        O      0.143600000000     0.552600000000     0.085800000000     0          
O        O      0.149033333333     0.769000000000     0.163750000000     0          
O        O      0.061566666667     0.768900000000     0.186225000000     0          
O        O      0.075900000000     0.355900000000     0.215075000000     0          
O        O      0.150933333333     0.313900000000     0.190025000000     0          
O        O      0.077566666667     0.314400000000     0.135725000000     0          
O        O      0.127000000000     0.386500000000     0.147275000000     0          
O        O      0.166666666667     0.111000000000     0.000000000000     0          
O        O      0.111700000000     0.159500000000     0.198075000000     0          
O        O      0.086000000000     0.080400000000     0.223600000000     0          
O        O      0.166666666667     0.432400000000     0.000000000000     0          
O        O      0.143600000000     0.447400000000     0.085800000000     0          
O        O      0.149033333333     0.231000000000     0.163750000000     0          
O        O      0.061566666667     0.231100000000     0.186225000000     0          
O        O      0.166666666667     0.250800000000     0.000000000000     0          
O        O      0.257433333333     0.355900000000     0.034925000000     0          
O        O      0.182400000000     0.313900000000     0.059975000000     0          
O        O      0.255766666667     0.314400000000     0.114275000000     0          
O        O      0.206333333333     0.386500000000     0.102725000000     0          
O        O      0.221633333333     0.159500000000     0.051925000000     0          
O        O      0.247333333333     0.080400000000     0.026400000000     0          
O        O      0.189733333333     0.447400000000     0.164200000000     0          
O        O      0.184300000000     0.231000000000     0.086250000000     0          
O        O      0.271766666667     0.231100000000     0.063775000000     0          
O        O      0.090766666667     0.144100000000     0.284925000000     0          
O        O      0.015733333333     0.186100000000     0.309975000000     0          
O        O      0.089100000000     0.185600000000     0.364275000000     0          
O        O      0.039666666667     0.113500000000     0.352725000000     0          
O        O      0.000000000000     0.389000000000     0.250000000000     0          
O        O      0.054966666667     0.340500000000     0.301925000000     0          
O        O      0.080666666667     0.419600000000     0.276400000000     0          
O        O      0.052833333333     0.000000000000     0.479825000000     0          
O        O      0.000000000000     0.067600000000     0.250000000000     0          
O        O      0.023066666667     0.052600000000     0.414200000000     0          
O        O      0.017633333333     0.269000000000     0.336250000000     0          
O        O      0.105100000000     0.268900000000     0.313775000000     0          
O        O      0.000000000000     0.249200000000     0.250000000000     0          
O        O      0.242566666667     0.144100000000     0.465075000000     0          
O        O      0.317600000000     0.186100000000     0.440025000000     0          
O        O      0.244233333333     0.185600000000     0.385725000000     0          
O        O      0.293666666667     0.113500000000     0.397275000000     0          
O        O      0.278366666667     0.340500000000     0.448075000000     0          
O        O      0.252666666667     0.419600000000     0.473600000000     0          
O        O      0.280500000000     0.000000000000     0.270175000000     0          
O        O      0.310266666667     0.052600000000     0.335800000000     0          
O        O      0.315700000000     0.269000000000     0.413750000000     0          
O        O      0.228233333333     0.268900000000     0.436225000000     0          
O        O      0.242566666667     0.855900000000     0.465075000000     0          
O        O      0.317600000000     0.813900000000     0.440025000000     0          
O        O      0.244233333333     0.814400000000     0.385725000000     0          
O        O      0.293666666667     0.886500000000     0.397275000000     0          
O        O      0.000000000000     0.611000000000     0.250000000000     0          
O        O      0.278366666667     0.659500000000     0.448075000000     0          
O        O      0.252666666667     0.580400000000     0.473600000000     0          
O        O      0.000000000000     0.932400000000     0.250000000000     0          
O        O      0.310266666667     0.947400000000     0.335800000000     0          
O        O      0.315700000000     0.731000000000     0.413750000000     0          
O        O      0.228233333333     0.731100000000     0.436225000000     0          
O        O      0.000000000000     0.750800000000     0.250000000000     0          
O        O      0.090766666667     0.855900000000     0.284925000000     0          
O        O      0.015733333333     0.813900000000     0.309975000000     0          
O        O      0.089100000000     0.814400000000     0.364275000000     0          
O        O      0.039666666667     0.886500000000     0.352725000000     0          
O        O      0.054966666667     0.659500000000     0.301925000000     0          
O        O      0.080666666667     0.580400000000     0.276400000000     0          
O        O      0.023066666667     0.947400000000     0.414200000000     0          
O        O      0.017633333333     0.731000000000     0.336250000000     0          
O        O      0.105100000000     0.731100000000     0.313775000000     0          
O        O      0.257433333333     0.644100000000     0.284925000000     0          
O        O      0.182400000000     0.686100000000     0.309975000000     0          
O        O      0.255766666667     0.685600000000     0.364275000000     0          
O        O      0.206333333333     0.613500000000     0.352725000000     0          
O        O      0.166666666667     0.889000000000     0.250000000000     0          
O        O      0.221633333333     0.840500000000     0.301925000000     0          
O        O      0.247333333333     0.919600000000     0.276400000000     0          
O        O      0.219500000000     0.500000000000     0.479825000000     0          
O        O      0.166666666667     0.567600000000     0.250000000000     0          
O        O      0.189733333333     0.552600000000     0.414200000000     0          
O        O      0.184300000000     0.769000000000     0.336250000000     0          
O        O      0.271766666667     0.768900000000     0.313775000000     0          
O        O      0.166666666667     0.749200000000     0.250000000000     0          
O        O      0.075900000000     0.644100000000     0.465075000000     0          
O        O      0.150933333333     0.686100000000     0.440025000000     0          
O        O      0.077566666667     0.685600000000     0.385725000000     0          
O        O      0.127000000000     0.613500000000     0.397275000000     0          
O        O      0.111700000000     0.840500000000     0.448075000000     0          
O        O      0.086000000000     0.919600000000     0.473600000000     0          
O        O      0.113833333333     0.500000000000     0.270175000000     0          
O        O      0.143600000000     0.552600000000     0.335800000000     0          
O        O      0.149033333333     0.769000000000     0.413750000000     0          
O        O      0.061566666667     0.768900000000     0.436225000000     0          
O        O      0.075900000000     0.355900000000     0.465075000000     0          
O        O      0.150933333333     0.313900000000     0.440025000000     0          
O        O      0.077566666667     0.314400000000     0.385725000000     0          
O        O      0.127000000000     0.386500000000     0.397275000000     0          
O        O      0.166666666667     0.111000000000     0.250000000000     0          
O        O      0.111700000000     0.159500000000     0.448075000000     0          
O        O      0.086000000000     0.080400000000     0.473600000000     0          
O        O      0.166666666667     0.432400000000     0.250000000000     0          
O        O      0.143600000000     0.447400000000     0.335800000000     0          
O        O      0.149033333333     0.231000000000     0.413750000000     0          
O        O      0.061566666667     0.231100000000     0.436225000000     0          
O        O      0.166666666667     0.250800000000     0.250000000000     0          
O        O      0.257433333333     0.355900000000     0.284925000000     0          
O        O      0.182400000000     0.313900000000     0.309975000000     0          
O        O      0.255766666667     0.314400000000     0.364275000000     0          
O        O      0.206333333333     0.386500000000     0.352725000000     0          
O        O      0.221633333333     0.159500000000     0.301925000000     0          
O        O      0.247333333333     0.080400000000     0.276400000000     0          
O        O      0.189733333333     0.447400000000     0.414200000000     0          
O        O      0.184300000000     0.231000000000     0.336250000000     0          
O        O      0.271766666667     0.231100000000     0.313775000000     0          
O        O      0.090766666667     0.144100000000     0.534925000000     0          
O        O      0.015733333333     0.186100000000     0.559975000000     0          
O        O      0.089100000000     0.185600000000     0.614275000000     0          
O        O      0.039666666667     0.113500000000     0.602725000000     0          
O        O      0.000000000000     0.389000000000     0.500000000000     0          
O        O      0.054966666667     0.340500000000     0.551925000000     0          
O        O      0.080666666667     0.419600000000     0.526400000000     0          
O        O      0.052833333333     0.000000000000     0.729825000000     0          
O        O      0.000000000000     0.067600000000     0.500000000000     0          
O        O      0.023066666667     0.052600000000     0.664200000000     0          
O        O      0.017633333333     0.269000000000     0.586250000000     0          
O        O      0.105100000000     0.268900000000     0.563775000000     0          
O        O      0.000000000000     0.249200000000     0.500000000000     0          
O        O      0.242566666667     0.144100000000     0.715075000000     0          
O        O      0.317600000000     0.186100000000     0.690025000000     0          
O        O      0.244233333333     0.185600000000     0.635725000000     0          
O        O      0.293666666667     0.113500000000     0.647275000000     0          
O        O      0.278366666667     0.340500000000     0.698075000000     0          
O        O      0.252666666667     0.419600000000     0.723600000000     0          
O        O      0.280500000000     0.000000000000     0.520175000000     0          
O        O      0.310266666667     0.052600000000     0.585800000000     0          
O        O      0.315700000000     0.269000000000     0.663750000000     0          
O        O      0.228233333333     0.268900000000     0.686225000000     0          
O        O      0.242566666667     0.855900000000     0.715075000000     0          
O        O      0.317600000000     0.813900000000     0.690025000000     0          
O        O      0.244233333333     0.814400000000     0.635725000000     0          
O        O      0.293666666667     0.886500000000     0.647275000000     0          
O        O      0.000000000000     0.611000000000     0.500000000000     0          
O        O      0.278366666667     0.659500000000     0.698075000000     0          
O        O      0.252666666667     0.580400000000     0.723600000000     0          
O        O      0.000000000000     0.932400000000     0.500000000000     0          
O        O      0.310266666667     0.947400000000     0.585800000000     0          
O        O      0.315700000000     0.731000000000     0.663750000000     0          
O        O      0.228233333333     0.731100000000     0.686225000000     0          
O        O      0.000000000000     0.750800000000     0.500000000000     0          
O        O      0.090766666667     0.855900000000     0.534925000000     0          
O        O      0.015733333333     0.813900000000     0.559975000000     0          
O        O      0.089100000000     0.814400000000     0.614275000000     0          
O        O      0.039666666667     0.886500000000     0.602725000000     0          
O        O      0.054966666667     0.659500000000     0.551925000000     0          
O        O      0.080666666667     0.580400000000     0.526400000000     0          
O        O      0.023066666667     0.947400000000     0.664200000000     0          
O        O      0.017633333333     0.731000000000     0.586250000000     0          
O        O      0.105100000000     0.731100000000     0.563775000000     0          
O        O      0.257433333333     0.644100000000     0.534925000000     0          
O        O      0.182400000000     0.686100000000     0.559975000000     0          
O        O      0.255766666667     0.685600000000     0.614275000000     0          
O        O      0.206333333333     0.613500000000     0.602725000000     0          
O        O      0.166666666667     0.889000000000     0.500000000000     0          
O        O      0.221633333333     0.840500000000     0.551925000000     0          
O        O      0.247333333333     0.919600000000     0.526400000000     0          
O        O      0.219500000000     0.500000000000     0.729825000000     0          
O        O      0.166666666667     0.567600000000     0.500000000000     0          
O        O      0.189733333333     0.552600000000     0.664200000000     0          
O        O      0.184300000000     0.769000000000     0.586250000000     0          
O        O      0.271766666667     0.768900000000     0.563775000000     0          
O        O      0.166666666667     0.749200000000     0.500000000000     0          
O        O      0.075900000000     0.644100000000     0.715075000000     0          
O        O      0.150933333333     0.686100000000     0.690025000000     0          
O        O      0.077566666667     0.685600000000     0.635725000000     0          
O        O      0.127000000000     0.613500000000     0.647275000000     0          
O        O      0.111700000000     0.840500000000     0.698075000000     0          
O        O      0.086000000000     0.919600000000     0.723600000000     0          
O        O      0.113833333333     0.500000000000     0.520175000000     0          
O        O      0.143600000000     0.552600000000     0.585800000000     0          
O        O      0.149033333333     0.769000000000     0.663750000000     0          
O        O      0.061566666667     0.768900000000     0.686225000000     0          
O        O      0.075900000000     0.355900000000     0.715075000000     0          
O        O      0.150933333333     0.313900000000     0.690025000000     0          
O        O      0.077566666667     0.314400000000     0.635725000000     0          
O        O      0.127000000000     0.386500000000     0.647275000000     0          
O        O      0.166666666667     0.111000000000     0.500000000000     0          
O        O      0.111700000000     0.159500000000     0.698075000000     0          
O        O      0.086000000000     0.080400000000     0.723600000000     0          
O        O      0.166666666667     0.432400000000     0.500000000000     0          
O        O      0.143600000000     0.447400000000     0.585800000000     0          
O        O      0.149033333333     0.231000000000     0.663750000000     0          
O        O      0.061566666667     0.231100000000     0.686225000000     0          
O        O      0.166666666667     0.250800000000     0.500000000000     0          
O        O      0.257433333333     0.355900000000     0.534925000000     0          
O        O      0.182400000000     0.313900000000     0.559975000000     0          
O        O      0.255766666667     0.314400000000     0.614275000000     0          
O        O      0.206333333333     0.386500000000     0.602725000000     0          
O        O      0.221633333333     0.159500000000     0.551925000000     0          
O        O      0.247333333333     0.080400000000     0.526400000000     0          
O        O      0.189733333333     0.447400000000     0.664200000000     0          
O        O      0.184300000000     0.231000000000     0.586250000000     0          
O        O      0.271766666667     0.231100000000     0.563775000000     0          
O        O      0.090766666667     0.144100000000     0.784925000000     0          
O        O      0.015733333333     0.186100000000     0.809975000000     0          
O        O      0.089100000000     0.185600000000     0.864275000000     0          
O        O      0.039666666667     0.113500000000     0.852725000000     0          
O        O      0.000000000000     0.389000000000     0.750000000000     0          
O        O      0.054966666667     0.340500000000     0.801925000000     0          
O        O      0.080666666667     0.419600000000     0.776400000000     0          
O        O      0.052833333333     0.000000000000     0.979825000000     0          
O        O      0.000000000000     0.067600000000     0.750000000000     0          
O        O      0.023066666667     0.052600000000     0.914200000000     0          
O        O      0.017633333333     0.269000000000     0.836250000000     0          
O        O      0.105100000000     0.268900000000     0.813775000000     0          
O        O      0.000000000000     0.249200000000     0.750000000000     0          
O        O      0.242566666667     0.144100000000     0.965075000000     0          
O        O      0.317600000000     0.186100000000     0.940025000000     0          
O        O      0.244233333333     0.185600000000     0.885725000000     0          
O        O      0.293666666667     0.113500000000     0.897275000000     0          
O        O      0.278366666667     0.340500000000     0.948075000000     0          
O        O      0.252666666667     0.419600000000     0.973600000000     0          
O        O      0.280500000000     0.000000000000     0.770175000000     0          
O        O      0.310266666667     0.052600000000     0.835800000000     0          
O        O      0.315700000000     0.269000000000     0.913750000000     0          
O        O      0.228233333333     0.268900000000     0.936225000000     0          
O        O      0.242566666667     0.855900000000     0.965075000000     0          
O        O      0.317600000000     0.813900000000     0.940025000000     0          
O        O      0.244233333333     0.814400000000     0.885725000000     0          
O        O      0.293666666667     0.886500000000     0.897275000000     0          
O        O      0.000000000000     0.611000000000     0.750000000000     0          
O        O      0.278366666667     0.659500000000     0.948075000000     0          
O        O      0.252666666667     0.580400000000     0.973600000000     0          
O        O      0.000000000000     0.932400000000     0.750000000000     0          
O        O      0.310266666667     0.947400000000     0.835800000000     0          
O        O      0.315700000000     0.731000000000     0.913750000000     0          
O        O      0.228233333333     0.731100000000     0.936225000000     0          
O        O      0.000000000000     0.750800000000     0.750000000000     0          
O        O      0.090766666667     0.855900000000     0.784925000000     0          
O        O      0.015733333333     0.813900000000     0.809975000000     0          
O        O      0.089100000000     0.814400000000     0.864275000000     0          
O        O      0.039666666667     0.886500000000     0.852725000000     0          
O        O      0.054966666667     0.659500000000     0.801925000000     0          
O        O      0.080666666667     0.580400000000     0.776400000000     0          
O        O      0.023066666667     0.947400000000     0.914200000000     0          
O        O      0.017633333333     0.731000000000     0.836250000000     0          
O        O      0.105100000000     0.731100000000     0.813775000000     0          
O        O      0.257433333333     0.644100000000     0.784925000000     0          
O        O      0.182400000000     0.686100000000     0.809975000000     0          
O        O      0.255766666667     0.685600000000     0.864275000000     0          
O        O      0.206333333333     0.613500000000     0.852725000000     0          
O        O      0.166666666667     0.889000000000     0.750000000000     0          
O        O      0.221633333333     0.840500000000     0.801925000000     0          
O        O      0.247333333333     0.919600000000     0.776400000000     0          
O        O      0.219500000000     0.500000000000     0.979825000000     0          
O        O      0.166666666667     0.567600000000     0.750000000000     0          
O        O      0.189733333333     0.552600000000     0.914200000000     0          
O        O      0.184300000000     0.769000000000     0.836250000000     0          
O        O      0.271766666667     0.768900000000     0.813775000000     0          
O        O      0.166666666667     0.749200000000     0.750000000000     0          
O        O      0.075900000000     0.644100000000     0.965075000000     0          
O        O      0.150933333333     0.686100000000     0.940025000000     0          
O        O      0.077566666667     0.685600000000     0.885725000000     0          
O        O      0.127000000000     0.613500000000     0.897275000000     0          
O        O      0.111700000000     0.840500000000     0.948075000000     0          
O        O      0.086000000000     0.919600000000     0.973600000000     0          
O        O      0.113833333333     0.500000000000     0.770175000000     0          
O        O      0.143600000000     0.552600000000     0.835800000000     0          
O        O      0.149033333333     0.769000000000     0.913750000000     0          
O        O      0.061566666667     0.768900000000     0.936225000000     0          
O        O      0.075900000000     0.355900000000     0.965075000000     0          
O        O      0.150933333333     0.313900000000     0.940025000000     0          
O        O      0.077566666667     0.314400000000     0.885725000000     0          
O        O      0.127000000000     0.386500000000     0.897275000000     0          
O        O      0.166666666667     0.111000000000     0.750000000000     0          
O        O      0.111700000000     0.159500000000     0.948075000000     0          
O        O      0.086000000000     0.080400000000     0.973600000000     0          
O        O      0.166666666667     0.432400000000     0.750000000000     0          
O        O      0.143600000000     0.447400000000     0.835800000000     0          
O        O      0.149033333333     0.231000000000     0.913750000000     0          
O        O      0.061566666667     0.231100000000     0.936225000000     0          
O        O      0.166666666667     0.250800000000     0.750000000000     0          
O        O      0.257433333333     0.355900000000     0.784925000000     0          
O        O      0.182400000000     0.313900000000     0.809975000000     0          
O        O      0.255766666667     0.314400000000     0.864275000000     0          
O        O      0.206333333333     0.386500000000     0.852725000000     0          
O        O      0.221633333333     0.159500000000     0.801925000000     0          
O        O      0.247333333333     0.080400000000     0.776400000000     0          
O        O      0.189733333333     0.447400000000     0.914200000000     0          
O        O      0.184300000000     0.231000000000     0.836250000000     0          
O        O      0.271766666667     0.231100000000     0.813775000000     0          
O        O      0.424100000000     0.144100000000     0.034925000000     0          
O        O      0.349066666667     0.186100000000     0.059975000000     0          
O        O      0.422433333333     0.185600000000     0.114275000000     0          
O        O      0.373000000000     0.113500000000     0.102725000000     0          
O        O      0.333333333333     0.389000000000     0.000000000000     0          
O        O      0.388300000000     0.340500000000     0.051925000000     0          
O        O      0.414000000000     0.419600000000     0.026400000000     0          
O        O      0.386166666667     0.000000000000     0.229825000000     0          
O        O      0.333333333333     0.067600000000     0.000000000000     0          
O        O      0.356400000000     0.052600000000     0.164200000000     0          
O        O      0.350966666667     0.269000000000     0.086250000000     0          
O        O      0.438433333333     0.268900000000     0.063775000000     0          
O        O      0.333333333333     0.249200000000     0.000000000000     0          
O        O      0.575900000000     0.144100000000     0.215075000000     0          
O        O      0.650933333333     0.186100000000     0.190025000000     0          
O        O      0.577566666667     0.185600000000     0.135725000000     0          
O        O      0.627000000000     0.113500000000     0.147275000000     0          
O        O      0.611700000000     0.340500000000     0.198075000000     0          
O        O      0.586000000000     0.419600000000     0.223600000000     0          
O        O      0.613833333333     0.000000000000     0.020175000000     0          
O        O      0.643600000000     0.052600000000     0.085800000000     0          
O        O      0.649033333333     0.269000000000     0.163750000000     0          
O        O      0.561566666667     0.268900000000     0.186225000000     0          
O        O      0.575900000000     0.855900000000     0.215075000000     0          
O        O      0.650933333333     0.813900000000     0.190025000000     0          
O        O      0.577566666667     0.814400000000     0.135725000000     0          
O        O      0.627000000000     0.886500000000     0.147275000000     0          
O        O      0.333333333333     0.611000000000     0.000000000000     0          
O        O      0.611700000000     0.659500000000     0.198075000000     0          
O        O      0.586000000000     0.580400000000     0.223600000000     0          
O        O      0.333333333333     0.932400000000     0.000000000000     0          
O        O      0.643600000000     0.947400000000     0.085800000000     0          
O        O      0.649033333333     0.731000000000     0.163750000000     0          
O        O      0.561566666667     0.731100000000     0.186225000000     0          
O        O      0.333333333333     0.750800000000     0.000000000000     0          
O        O      0.424100000000     0.855900000000     0.034925000000     0          
O        O      0.349066666667     0.813900000000     0.059975000000     0          
O        O      0.422433333333     0.814400000000     0.114275000000     0          
O        O      0.373000000000     0.886500000000     0.102725000000     0          
O        O      0.388300000000     0.659500000000     0.051925000000     0          
O        O      0.414000000000     0.580400000000     0.026400000000     0          
O        O      0.356400000000     0.947400000000     0.164200000000     0          
O        O      0.350966666667     0.731000000000     0.086250000000     0          
O        O      0.438433333333     0.731100000000     0.063775000000     0          
O        O      0.590766666667     0.644100000000     0.034925000000     0          
O        O      0.515733333333     0.686100000000     0.059975000000     0          
O        O      0.589100000000     0.685600000000     0.114275000000     0          
O        O      0.539666666667     0.613500000000     0.102725000000     0          
O        O      0.500000000000     0.889000000000     0.000000000000     0          
O        O      0.554966666667     0.840500000000     0.051925000000     0          
O        O      0.580666666667     0.919600000000     0.026400000000     0          
O        O      0.552833333333     0.500000000000     0.229825000000     0          
O        O      0.500000000000     0.567600000000     0.000000000000     0          
O        O      0.523066666667     0.552600000000     0.164200000000     0          
O        O      0.517633333333     0.769000000000     0.086250000000     0          
O        O      0.605100000000     0.768900000000     0.063775000000     0          
O        O      0.500000000000     0.749200000000     0.000000000000     0          
O        O      0.409233333333     0.644100000000     0.215075000000     0          
O        O      0.484266666667     0.686100000000     0.190025000000     0          
O        O      0.410900000000     0.685600000000     0.135725000000     0          
O        O      0.460333333333     0.613500000000     0.147275000000     0          
O        O      0.445033333333     0.840500000000     0.198075000000     0          
O        O      0.419333333333     0.919600000000     0.223600000000     0          
O        O      0.447166666667     0.500000000000     0.020175000000     0          
O        O      0.476933333333     0.552600000000     0.085800000000     0          
O        O      0.482366666667     0.769000000000     0.163750000000     0          
O        O      0.394900000000     0.768900000000     0.186225000000     0          
O        O      0.409233333333     0.355900000000     0.215075000000     0          
O        O      0.484266666667     0.313900000000     0.190025000000     0          
O        O      0.410900000000     0.314400000000     0.135725000000     0          
O        O      0.460333333333     0.386500000000     0.147275000000     0          
O        O      0.500000000000     0.111000000000     0.000000000000     0          
O        O      0.445033333333     0.159500000000     0.198075000000     0          
O        O      0.419333333333     0.080400000000     0.223600000000     0          
O        O      0.500000000000     0.432400000000     0.000000000000     0          
O        O      0.476933333333     0.447400000000     0.085800000000     0          
O        O      0.482366666667     0.231000000000     0.163750000000     0          
O        O      0.394900000000     0.231100000000     0.186225000000     0          
O        O      0.500000000000     0.250800000000     0.000000000000     0          
O        O      0.590766666667     0.355900000000     0.034925000000     0          
O        O      0.515733333333     0.313900000000     0.059975000000     0          
O        O      0.589100000000     0.314400000000     0.114275000000     0          
O        O      0.539666666667     0.386500000000     0.102725000000     0          
O        O      0.554966666667     0.159500000000     0.051925000000     0          
O        O      0.580666666667     0.080400000000     0.026400000000     0          
O        O      0.523066666667     0.447400000000     0.164200000000     0          
O        O      0.517633333333     0.231000000000     0.086250000000     0          
O        O      0.605100000000     0.231100000000     0.063775000000     0          
O        O      0.424100000000     0.144100000000     0.284925000000     0          
O        O      0.349066666667     0.186100000000     0.309975000000     0          
O        O      0.422433333333     0.185600000000     0.364275000000     0          
O        O      0.373000000000     0.113500000000     0.352725000000     0          
O        O      0.333333333333     0.389000000000     0.250000000000     0          
O        O      0.388300000000     0.340500000000     0.301925000000     0          
O        O      0.414000000000     0.419600000000     0.276400000000     0          
O        O      0.386166666667     0.000000000000     0.479825000000     0          
O        O      0.333333333333     0.067600000000     0.250000000000     0          
O        O      0.356400000000     0.052600000000     0.414200000000     0          
O        O      0.350966666667     0.269000000000     0.336250000000     0          
O        O      0.438433333333     0.268900000000     0.313775000000     0          
O        O      0.333333333333     0.249200000000     0.250000000000     0          
O        O      0.575900000000     0.144100000000     0.465075000000     0          
O        O      0.650933333333     0.186100000000     0.440025000000     0          
O        O      0.577566666667     0.185600000000     0.385725000000     0          
O        O      0.627000000000     0.113500000000     0.397275000000     0          
O        O      0.611700000000     0.340500000000     0.448075000000     0          
O        O      0.586000000000     0.419600000000     0.473600000000     0          
O        O      0.613833333333     0.000000000000     0.270175000000     0          
O        O      0.643600000000     0.052600000000     0.335800000000     0          
O        O      0.649033333333     0.269000000000     0.413750000000     0          
O        O      0.561566666667     0.268900000000     0.436225000000     0          
O        O      0.575900000000     0.855900000000     0.465075000000     0          
O        O      0.650933333333     0.813900000000     0.440025000000     0          
O        O      0.577566666667     0.814400000000     0.385725000000     0          
O        O      0.627000000000     0.886500000000     0.397275000000     0          
O        O      0.333333333333     0.611000000000     0.250000000000     0          
O        O      0.611700000000     0.659500000000     0.448075000000     0          
O        O      0.586000000000     0.580400000000     0.473600000000     0          
O        O      0.333333333333     0.932400000000     0.250000000000     0          
O        O      0.643600000000     0.947400000000     0.335800000000     0          
O        O      0.649033333333     0.731000000000     0.413750000000     0          
O        O      0.561566666667     0.731100000000     0.436225000000     0          
O        O      0.333333333333     0.750800000000     0.250000000000     0          
O        O      0.424100000000     0.855900000000     0.284925000000     0          
O        O      0.349066666667     0.813900000000     0.309975000000     0          
O        O      0.422433333333     0.814400000000     0.364275000000     0          
O        O      0.373000000000     0.886500000000     0.352725000000     0          
O        O      0.388300000000     0.659500000000     0.301925000000     0          
O        O      0.414000000000     0.580400000000     0.276400000000     0          
O        O      0.356400000000     0.947400000000     0.414200000000     0          
O        O      0.350966666667     0.731000000000     0.336250000000     0          
O        O      0.438433333333     0.731100000000     0.313775000000     0          
O        O      0.590766666667     0.644100000000     0.284925000000     0          
O        O      0.515733333333     0.686100000000     0.309975000000     0          
O        O      0.589100000000     0.685600000000     0.364275000000     0          
O        O      0.539666666667     0.613500000000     0.352725000000     0          
O        O      0.500000000000     0.889000000000     0.250000000000     0          
O        O      0.554966666667     0.840500000000     0.301925000000     0          
O        O      0.580666666667     0.919600000000     0.276400000000     0          
O        O      0.552833333333     0.500000000000     0.479825000000     0          
O        O      0.500000000000     0.567600000000     0.250000000000     0          
O        O      0.523066666667     0.552600000000     0.414200000000     0          
O        O      0.517633333333     0.769000000000     0.336250000000     0          
O        O      0.605100000000     0.768900000000     0.313775000000     0          
O        O      0.500000000000     0.749200000000     0.250000000000     0          
O        O      0.409233333333     0.644100000000     0.465075000000     0          
O        O      0.484266666667     0.686100000000     0.440025000000     0          
O        O      0.410900000000     0.685600000000     0.385725000000     0          
O        O      0.460333333333     0.613500000000     0.397275000000     0          
O        O      0.445033333333     0.840500000000     0.448075000000     0          
O        O      0.419333333333     0.919600000000     0.473600000000     0          
O        O      0.447166666667     0.500000000000     0.270175000000     0          
O        O      0.476933333333     0.552600000000     0.335800000000     0          
O        O      0.482366666667     0.769000000000     0.413750000000     0          
O        O      0.394900000000     0.768900000000     0.436225000000     0          
O        O      0.409233333333     0.355900000000     0.465075000000     0          
O        O      0.484266666667     0.313900000000     0.440025000000     0          
O        O      0.410900000000     0.314400000000     0.385725000000     0          
O        O      0.460333333333     0.386500000000     0.397275000000     0          
O        O      0.500000000000     0.111000000000     0.250000000000     0          
O        O      0.445033333333     0.159500000000     0.448075000000     0          
O        O      0.419333333333     0.080400000000     0.473600000000     0          
O        O      0.500000000000     0.432400000000     0.250000000000     0          
O        O      0.476933333333     0.447400000000     0.335800000000     0          
O        O      0.482366666667     0.231000000000     0.413750000000     0          
O        O      0.394900000000     0.231100000000     0.436225000000     0          
O        O      0.500000000000     0.250800000000     0.250000000000     0          
O        O      0.590766666667     0.355900000000     0.284925000000     0          
O        O      0.515733333333     0.313900000000     0.309975000000     0          
O        O      0.589100000000     0.314400000000     0.364275000000     0          
O        O      0.539666666667     0.386500000000     0.352725000000     0          
O        O      0.554966666667     0.159500000000     0.301925000000     0          
O        O      0.580666666667     0.080400000000     0.276400000000     0          
O        O      0.523066666667     0.447400000000     0.414200000000     0          
O        O      0.517633333333     0.231000000000     0.336250000000     0          
O        O      0.605100000000     0.231100000000     0.313775000000     0          
O        O      0.424100000000     0.144100000000     0.534925000000     0          
O        O      0.349066666667     0.186100000000     0.559975000000     0          
O        O      0.422433333333     0.185600000000     0.614275000000     0          
O        O      0.373000000000     0.113500000000     0.602725000000     0          
O        O      0.333333333333     0.389000000000     0.500000000000     0          
O        O      0.388300000000     0.340500000000     0.551925000000     0          
O        O      0.414000000000     0.419600000000     0.526400000000     0          
O        O      0.386166666667     0.000000000000     0.729825000000     0          
O        O      0.333333333333     0.067600000000     0.500000000000     0          
O        O      0.356400000000     0.052600000000     0.664200000000     0          
O        O      0.350966666667     0.269000000000     0.586250000000     0          
O        O      0.438433333333     0.268900000000     0.563775000000     0          
O        O      0.333333333333     0.249200000000     0.500000000000     0          
O        O      0.575900000000     0.144100000000     0.715075000000     0          
O        O      0.650933333333     0.186100000000     0.690025000000     0          
O        O      0.577566666667     0.185600000000     0.635725000000     0          
O        O      0.627000000000     0.113500000000     0.647275000000     0          
O        O      0.611700000000     0.340500000000     0.698075000000     0          
O        O      0.586000000000     0.419600000000     0.723600000000     0          
O        O      0.613833333333     0.000000000000     0.520175000000     0          
O        O      0.643600000000     0.052600000000     0.585800000000     0          
O        O      0.649033333333     0.269000000000     0.663750000000     0          
O        O      0.561566666667     0.268900000000     0.686225000000     0          
O        O      0.575900000000     0.855900000000     0.715075000000     0          
O        O      0.650933333333     0.813900000000     0.690025000000     0          
O        O      0.577566666667     0.814400000000     0.635725000000     0          
O        O      0.627000000000     0.886500000000     0.647275000000     0          
O        O      0.333333333333     0.611000000000     0.500000000000     0          
O        O      0.611700000000     0.659500000000     0.698075000000     0          
O        O      0.586000000000     0.580400000000     0.723600000000     0          
O        O      0.333333333333     0.932400000000     0.500000000000     0          
O        O      0.643600000000     0.947400000000     0.585800000000     0          
O        O      0.649033333333     0.731000000000     0.663750000000     0          
O        O      0.561566666667     0.731100000000     0.686225000000     0          
O        O      0.333333333333     0.750800000000     0.500000000000     0          
O        O      0.424100000000     0.855900000000     0.534925000000     0          
O        O      0.349066666667     0.813900000000     0.559975000000     0          
O        O      0.422433333333     0.814400000000     0.614275000000     0          
O        O      0.373000000000     0.886500000000     0.602725000000     0          
O        O      0.388300000000     0.659500000000     0.551925000000     0          
O        O      0.414000000000     0.580400000000     0.526400000000     0          
O        O      0.356400000000     0.947400000000     0.664200000000     0          
O        O      0.350966666667     0.731000000000     0.586250000000     0          
O        O      0.438433333333     0.731100000000     0.563775000000     0          
O        O      0.590766666667     0.644100000000     0.534925000000     0          
O        O      0.515733333333     0.686100000000     0.559975000000     0          
O        O      0.589100000000     0.685600000000     0.614275000000     0          
O        O      0.539666666667     0.613500000000     0.602725000000     0          
O        O      0.500000000000     0.889000000000     0.500000000000     0          
O        O      0.554966666667     0.840500000000     0.551925000000     0          
O        O      0.580666666667     0.919600000000     0.526400000000     0          
O        O      0.552833333333     0.500000000000     0.729825000000     0          
O        O      0.500000000000     0.567600000000     0.500000000000     0          
O        O      0.523066666667     0.552600000000     0.664200000000     0          
O        O      0.517633333333     0.769000000000     0.586250000000     0          
O        O      0.605100000000     0.768900000000     0.563775000000     0          
O        O      0.500000000000     0.749200000000     0.500000000000     0          
O        O      0.409233333333     0.644100000000     0.715075000000     0          
O        O      0.484266666667     0.686100000000     0.690025000000     0          
O        O      0.410900000000     0.685600000000     0.635725000000     0          
O        O      0.460333333333     0.613500000000     0.647275000000     0          
O        O      0.445033333333     0.840500000000     0.698075000000     0          
O        O      0.419333333333     0.919600000000     0.723600000000     0          
O        O      0.447166666667     0.500000000000     0.520175000000     0          
O        O      0.476933333333     0.552600000000     0.585800000000     0          
O        O      0.482366666667     0.769000000000     0.663750000000     0          
O        O      0.394900000000     0.768900000000     0.686225000000     0          
O        O      0.409233333333     0.355900000000     0.715075000000     0          
O        O      0.484266666667     0.313900000000     0.690025000000     0          
O        O      0.410900000000     0.314400000000     0.635725000000     0          
O        O      0.460333333333     0.386500000000     0.647275000000     0          
O        O      0.500000000000     0.111000000000     0.500000000000     0          
O        O      0.445033333333     0.159500000000     0.698075000000     0          
O        O      0.419333333333     0.080400000000     0.723600000000     0          
O        O      0.500000000000     0.432400000000     0.500000000000     0          
O        O      0.476933333333     0.447400000000     0.585800000000     0          
O        O      0.482366666667     0.231000000000     0.663750000000     0          
O        O      0.394900000000     0.231100000000     0.686225000000     0          
O        O      0.500000000000     0.250800000000     0.500000000000     0          
O        O      0.590766666667     0.355900000000     0.534925000000     0          
O        O      0.515733333333     0.313900000000     0.559975000000     0          
O        O      0.589100000000     0.314400000000     0.614275000000     0          
O        O      0.539666666667     0.386500000000     0.602725000000     0          
O        O      0.554966666667     0.159500000000     0.551925000000     0          
O        O      0.580666666667     0.080400000000     0.526400000000     0          
O        O      0.523066666667     0.447400000000     0.664200000000     0          
O        O      0.517633333333     0.231000000000     0.586250000000     0          
O        O      0.605100000000     0.231100000000     0.563775000000     0          
O        O      0.424100000000     0.144100000000     0.784925000000     0          
O        O      0.349066666667     0.186100000000     0.809975000000     0          
O        O      0.422433333333     0.185600000000     0.864275000000     0          
O        O      0.373000000000     0.113500000000     0.852725000000     0          
O        O      0.333333333333     0.389000000000     0.750000000000     0          
O        O      0.388300000000     0.340500000000     0.801925000000     0          
O        O      0.414000000000     0.419600000000     0.776400000000     0          
O        O      0.386166666667     0.000000000000     0.979825000000     0          
O        O      0.333333333333     0.067600000000     0.750000000000     0          
O        O      0.356400000000     0.052600000000     0.914200000000     0          
O        O      0.350966666667     0.269000000000     0.836250000000     0          
O        O      0.438433333333     0.268900000000     0.813775000000     0          
O        O      0.333333333333     0.249200000000     0.750000000000     0          
O        O      0.575900000000     0.144100000000     0.965075000000     0          
O        O      0.650933333333     0.186100000000     0.940025000000     0          
O        O      0.577566666667     0.185600000000     0.885725000000     0          
O        O      0.627000000000     0.113500000000     0.897275000000     0          
O        O      0.611700000000     0.340500000000     0.948075000000     0          
O        O      0.586000000000     0.419600000000     0.973600000000     0          
O        O      0.613833333333     0.000000000000     0.770175000000     0          
O        O      0.643600000000     0.052600000000     0.835800000000     0          
O        O      0.649033333333     0.269000000000     0.913750000000     0          
O        O      0.561566666667     0.268900000000     0.936225000000     0          
O        O      0.575900000000     0.855900000000     0.965075000000     0          
O        O      0.650933333333     0.813900000000     0.940025000000     0          
O        O      0.577566666667     0.814400000000     0.885725000000     0          
O        O      0.627000000000     0.886500000000     0.897275000000     0          
O        O      0.333333333333     0.611000000000     0.750000000000     0          
O        O      0.611700000000     0.659500000000     0.948075000000     0          
O        O      0.586000000000     0.580400000000     0.973600000000     0          
O        O      0.333333333333     0.932400000000     0.750000000000     0          
O        O      0.643600000000     0.947400000000     0.835800000000     0          
O        O      0.649033333333     0.731000000000     0.913750000000     0          
O        O      0.561566666667     0.731100000000     0.936225000000     0          
O        O      0.333333333333     0.750800000000     0.750000000000     0          
O        O      0.424100000000     0.855900000000     0.784925000000     0          
O        O      0.349066666667     0.813900000000     0.809975000000     0          
O        O      0.422433333333     0.814400000000     0.864275000000     0          
O        O      0.373000000000     0.886500000000     0.852725000000     0          
O        O      0.388300000000     0.659500000000     0.801925000000     0          
O        O      0.414000000000     0.580400000000     0.776400000000     0          
O        O      0.356400000000     0.947400000000     0.914200000000     0          
O        O      0.350966666667     0.731000000000     0.836250000000     0          
O        O      0.438433333333     0.731100000000     0.813775000000     0          
O        O      0.590766666667     0.644100000000     0.784925000000     0          
O        O      0.515733333333     0.686100000000     0.809975000000     0          
O        O      0.589100000000     0.685600000000     0.864275000000     0          
O        O      0.539666666667     0.613500000000     0.852725000000     0          
O        O      0.500000000000     0.889000000000     0.750000000000     0          
O        O      0.554966666667     0.840500000000     0.801925000000     0          
O        O      0.580666666667     0.919600000000     0.776400000000     0          
O        O      0.552833333333     0.500000000000     0.979825000000     0          
O        O      0.500000000000     0.567600000000     0.750000000000     0          
O        O      0.523066666667     0.552600000000     0.914200000000     0          
O        O      0.517633333333     0.769000000000     0.836250000000     0          
O        O      0.605100000000     0.768900000000     0.813775000000     0          
O        O      0.500000000000     0.749200000000     0.750000000000     0          
O        O      0.409233333333     0.644100000000     0.965075000000     0          
O        O      0.484266666667     0.686100000000     0.940025000000     0          
O        O      0.410900000000     0.685600000000     0.885725000000     0          
O        O      0.460333333333     0.613500000000     0.897275000000     0          
O        O      0.445033333333     0.840500000000     0.948075000000     0          
O        O      0.419333333333     0.919600000000     0.973600000000     0          
O        O      0.447166666667     0.500000000000     0.770175000000     0          
O        O      0.476933333333     0.552600000000     0.835800000000     0          
O        O      0.482366666667     0.769000000000     0.913750000000     0          
O        O      0.394900000000     0.768900000000     0.936225000000     0          
O        O      0.409233333333     0.355900000000     0.965075000000     0          
O        O      0.484266666667     0.313900000000     0.940025000000     0          
O        O      0.410900000000     0.314400000000     0.885725000000     0          
O        O      0.460333333333     0.386500000000     0.897275000000     0          
O        O      0.500000000000     0.111000000000     0.750000000000     0          
O        O      0.445033333333     0.159500000000     0.948075000000     0          
O        O      0.419333333333     0.080400000000     0.973600000000     0          
O        O      0.500000000000     0.432400000000     0.750000000000     0          
O        O      0.476933333333     0.447400000000     0.835800000000     0          
O        O      0.482366666667     0.231000000000     0.913750000000     0          
O        O      0.394900000000     0.231100000000     0.936225000000     0          
O        O      0.500000000000     0.250800000000     0.750000000000     0          
O        O      0.590766666667     0.355900000000     0.784925000000     0          
O        O      0.515733333333     0.313900000000     0.809975000000     0          
O        O      0.589100000000     0.314400000000     0.864275000000     0          
O        O      0.539666666667     0.386500000000     0.852725000000     0          
O        O      0.554966666667     0.159500000000     0.801925000000     0          
O        O      0.580666666667     0.080400000000     0.776400000000     0          
O        O      0.523066666667     0.447400000000     0.914200000000     0          
O        O      0.517633333333     0.231000000000     0.836250000000     0          
O        O      0.605100000000     0.231100000000     0.813775000000     0          
O        O      0.757433333333     0.144100000000     0.034925000000     0          
O        O      0.682400000000     0.186100000000     0.059975000000     0          
O        O      0.755766666667     0.185600000000     0.114275000000     0          
O        O      0.706333333333     0.113500000000     0.102725000000     0          
O        O      0.666666666667     0.389000000000     0.000000000000     0          
O        O      0.721633333333     0.340500000000     0.051925000000     0          
O        O      0.747333333333     0.419600000000     0.026400000000     0          
O        O      0.719500000000     0.000000000000     0.229825000000     0          
O        O      0.666666666667     0.067600000000     0.000000000000     0          
O        O      0.689733333333     0.052600000000     0.164200000000     0          
O        O      0.684300000000     0.269000000000     0.086250000000     0          
O        O      0.771766666667     0.268900000000     0.063775000000     0          
O        O      0.666666666667     0.249200000000     0.000000000000     0          
O        O      0.909233333333     0.144100000000     0.215075000000     0          
O        O      0.984266666667     0.186100000000     0.190025000000     0          
O        O      0.910900000000     0.185600000000     0.135725000000     0          
O        O      0.960333333333     0.113500000000     0.147275000000     0          
O        O      0.945033333333     0.340500000000     0.198075000000     0          
O        O      0.919333333333     0.419600000000     0.223600000000     0          
O        O      0.947166666667     0.000000000000     0.020175000000     0          
O        O      0.976933333333     0.052600000000     0.085800000000     0          
O        O      0.982366666667     0.269000000000     0.163750000000     0          
O        O      0.894900000000     0.268900000000     0.186225000000     0          
O        O      0.909233333333     0.855900000000     0.215075000000     0          
O        O      0.984266666667     0.813900000000     0.190025000000     0          
O        O      0.910900000000     0.814400000000     0.135725000000     0          
O        O      0.960333333333     0.886500000000     0.147275000000     0          
O        O      0.666666666667     0.611000000000     0.000000000000     0          
O        O      0.945033333333     0.659500000000     0.198075000000     0          
O        O      0.919333333333     0.580400000000     0.223600000000     0          
O        O      0.666666666667     0.932400000000     0.000000000000     0          
O        O      0.976933333333     0.947400000000     0.085800000000     0          
O        O      0.982366666667     0.731000000000     0.163750000000     0          
O        O      0.894900000000     0.731100000000     0.186225000000     0          
O        O      0.666666666667     0.750800000000     0.000000000000     0          
O        O      0.757433333333     0.855900000000     0.034925000000     0          
O        O      0.682400000000     0.813900000000     0.059975000000     0          
O        O      0.755766666667     0.814400000000     0.114275000000     0          
O        O      0.706333333333     0.886500000000     0.102725000000     0          
O        O      0.721633333333     0.659500000000     0.051925000000     0          
O        O      0.747333333333     0.580400000000     0.026400000000     0          
O        O      0.689733333333     0.947400000000     0.164200000000     0          
O        O      0.684300000000     0.731000000000     0.086250000000     0          
O        O      0.771766666667     0.731100000000     0.063775000000     0          
O        O      0.924100000000     0.644100000000     0.034925000000     0          
O        O      0.849066666667     0.686100000000     0.059975000000     0          
O        O      0.922433333333     0.685600000000     0.114275000000     0          
O        O      0.873000000000     0.613500000000     0.102725000000     0          
O        O      0.833333333333     0.889000000000     0.000000000000     0          
O        O      0.888300000000     0.840500000000     0.051925000000     0          
O        O      0.914000000000     0.919600000000     0.026400000000     0          
O        O      0.886166666667     0.500000000000     0.229825000000     0          
O        O      0.833333333333     0.567600000000     0.000000000000     0          
O        O      0.856400000000     0.552600000000     0.164200000000     0          
O        O      0.850966666667     0.769000000000     0.086250000000     0          
O        O      0.938433333333     0.768900000000     0.063775000000     0          
O        O      0.833333333333     0.749200000000     0.000000000000     0          
O        O      0.742566666667     0.644100000000     0.215075000000     0          
O        O      0.817600000000     0.686100000000     0.190025000000     0          
O        O      0.744233333333     0.685600000000     0.135725000000     0          
O        O      0.793666666667     0.613500000000     0.147275000000     0          
O        O      0.778366666667     0.840500000000     0.198075000000     0          
O        O      0.752666666667     0.919600000000     0.223600000000     0          
O        O      0.780500000000     0.500000000000     0.020175000000     0          
O        O      0.810266666667     0.552600000000     0.085800000000     0          
O        O      0.815700000000     0.769000000000     0.163750000000     0          
O        O      0.728233333333     0.768900000000     0.186225000000     0          
O        O      0.742566666667     0.355900000000     0.215075000000     0          
O        O      0.817600000000     0.313900000000     0.190025000000     0          
O        O      0.744233333333     0.314400000000     0.135725000000     0          
O        O      0.793666666667     0.386500000000     0.147275000000     0          
O        O      0.833333333333     0.111000000000     0.000000000000     0          
O        O      0.778366666667     0.159500000000     0.198075000000     0          
O        O      0.752666666667     0.080400000000     0.223600000000     0          
O        O      0.833333333333     0.432400000000     0.000000000000     0          
O        O      0.810266666667     0.447400000000     0.085800000000     0          
O        O      0.815700000000     0.231000000000     0.163750000000     0          
O        O      0.728233333333     0.231100000000     0.186225000000     0          
O        O      0.833333333333     0.250800000000     0.000000000000     0          
O        O      0.924100000000     0.355900000000     0.034925000000     0          
O        O      0.849066666667     0.313900000000     0.059975000000     0          
O        O      0.922433333333     0.314400000000     0.114275000000     0          
O        O      0.873000000000     0.386500000000     0.102725000000     0          
O        O      0.888300000000     0.159500000000     0.051925000000     0          
O        O      0.914000000000     0.080400000000     0.026400000000     0          
O        O      0.856400000000     0.447400000000     0.164200000000     0          
O        O      0.850966666667     0.231000000000     0.086250000000     0          
O        O      0.938433333333     0.231100000000     0.063775000000     0          
O        O      0.757433333333     0.144100000000     0.284925000000     0          
O        O      0.682400000000     0.186100000000     0.309975000000     0          
O        O      0.755766666667     0.185600000000     0.364275000000     0          
O        O      0.706333333333     0.113500000000     0.352725000000     0          
O        O      0.666666666667     0.389000000000     0.250000000000     0          
O        O      0.721633333333     0.340500000000     0.301925000000     0          
O        O      0.747333333333     0.419600000000     0.276400000000     0          
O        O      0.719500000000     0.000000000000     0.479825000000     0          
O        O      0.666666666667     0.067600000000     0.250000000000     0          
O        O      0.689733333333     0.052600000000     0.414200000000     0          
O        O      0.684300000000     0.269000000000     0.336250000000     0          
O        O      0.771766666667     0.268900000000     0.313775000000     0          
O        O      0.666666666667     0.249200000000     0.250000000000     0          
O        O      0.909233333333     0.144100000000     0.465075000000     0          
O        O      0.984266666667     0.186100000000     0.440025000000     0          
O        O      0.910900000000     0.185600000000     0.385725000000     0          
O        O      0.960333333333     0.113500000000     0.397275000000     0          
O        O      0.945033333333     0.340500000000     0.448075000000     0          
O        O      0.919333333333     0.419600000000     0.473600000000     0          
O        O      0.947166666667     0.000000000000     0.270175000000     0          
O        O      0.976933333333     0.052600000000     0.335800000000     0          
O        O      0.982366666667     0.269000000000     0.413750000000     0          
O        O      0.894900000000     0.268900000000     0.436225000000     0          
O        O      0.909233333333     0.855900000000     0.465075000000     0          
O        O      0.984266666667     0.813900000000     0.440025000000     0          
O        O      0.910900000000     0.814400000000     0.385725000000     0          
O        O      0.960333333333     0.886500000000     0.397275000000     0          
O        O      0.666666666667     0.611000000000     0.250000000000     0          
O        O      0.945033333333     0.659500000000     0.448075000000     0          
O        O      0.919333333333     0.580400000000     0.473600000000     0          
O        O      0.666666666667     0.932400000000     0.250000000000     0          
O        O      0.976933333333     0.947400000000     0.335800000000     0          
O        O      0.982366666667     0.731000000000     0.413750000000     0          
O        O      0.894900000000     0.731100000000     0.436225000000     0          
O        O      0.666666666667     0.750800000000     0.250000000000     0          
O        O      0.757433333333     0.855900000000     0.284925000000     0          
O        O      0.682400000000     0.813900000000     0.309975000000     0          
O        O      0.755766666667     0.814400000000     0.364275000000     0          
O        O      0.706333333333     0.886500000000     0.352725000000     0          
O        O      0.721633333333     0.659500000000     0.301925000000     0          
O        O      0.747333333333     0.580400000000     0.276400000000     0          
O        O      0.689733333333     0.947400000000     0.414200000000     0          
O        O      0.684300000000     0.731000000000     0.336250000000     0          
O        O      0.771766666667     0.731100000000     0.313775000000     0          
O        O      0.924100000000     0.644100000000     0.284925000000     0          
O        O      0.849066666667     0.686100000000     0.309975000000     0          
O        O      0.922433333333     0.685600000000     0.364275000000     0          
O        O      0.873000000000     0.613500000000     0.352725000000     0          
O        O      0.833333333333     0.889000000000     0.250000000000     0          
O        O      0.888300000000     0.840500000000     0.301925000000     0          
O        O      0.914000000000     0.919600000000     0.276400000000     0          
O        O      0.886166666667     0.500000000000     0.479825000000     0          
O        O      0.833333333333     0.567600000000     0.250000000000     0          
O        O      0.856400000000     0.552600000000     0.414200000000     0          
O        O      0.850966666667     0.769000000000     0.336250000000     0          
O        O      0.938433333333     0.768900000000     0.313775000000     0          
O        O      0.833333333333     0.749200000000     0.250000000000     0          
O        O      0.742566666667     0.644100000000     0.465075000000     0          
O        O      0.817600000000     0.686100000000     0.440025000000     0          
O        O      0.744233333333     0.685600000000     0.385725000000     0          
O        O      0.793666666667     0.613500000000     0.397275000000     0          
O        O      0.778366666667     0.840500000000     0.448075000000     0          
O        O      0.752666666667     0.919600000000     0.473600000000     0          
O        O      0.780500000000     0.500000000000     0.270175000000     0          
O        O      0.810266666667     0.552600000000     0.335800000000     0          
O        O      0.815700000000     0.769000000000     0.413750000000     0          
O        O      0.728233333333     0.768900000000     0.436225000000     0          
O        O      0.742566666667     0.355900000000     0.465075000000     0          
O        O      0.817600000000     0.313900000000     0.440025000000     0          
O        O      0.744233333333     0.314400000000     0.385725000000     0          
O        O      0.793666666667     0.386500000000     0.397275000000     0          
O        O      0.833333333333     0.111000000000     0.250000000000     0          
O        O      0.778366666667     0.159500000000     0.448075000000     0          
O        O      0.752666666667     0.080400000000     0.473600000000     0          
O        O      0.833333333333     0.432400000000     0.250000000000     0          
O        O      0.810266666667     0.447400000000     0.335800000000     0          
O        O      0.815700000000     0.231000000000     0.413750000000     0          
O        O      0.728233333333     0.231100000000     0.436225000000     0          
O        O      0.833333333333     0.250800000000     0.250000000000     0          
O        O      0.924100000000     0.355900000000     0.284925000000     0          
O        O      0.849066666667     0.313900000000     0.309975000000     0          
O        O      0.922433333333     0.314400000000     0.364275000000     0          
O        O      0.873000000000     0.386500000000     0.352725000000     0          
O        O      0.888300000000     0.159500000000     0.301925000000     0          
O        O      0.914000000000     0.080400000000     0.276400000000     0          
O        O      0.856400000000     0.447400000000     0.414200000000     0          
O        O      0.850966666667     0.231000000000     0.336250000000     0          
O        O      0.938433333333     0.231100000000     0.313775000000     0          
O        O      0.757433333333     0.144100000000     0.534925000000     0          
O        O      0.682400000000     0.186100000000     0.559975000000     0          
O        O      0.755766666667     0.185600000000     0.614275000000     0          
O        O      0.706333333333     0.113500000000     0.602725000000     0          
O        O      0.666666666667     0.389000000000     0.500000000000     0          
O        O      0.721633333333     0.340500000000     0.551925000000     0          
O        O      0.747333333333     0.419600000000     0.526400000000     0          
O        O      0.719500000000     0.000000000000     0.729825000000     0          
O        O      0.666666666667     0.067600000000     0.500000000000     0          
O        O      0.689733333333     0.052600000000     0.664200000000     0          
O        O      0.684300000000     0.269000000000     0.586250000000     0          
O        O      0.771766666667     0.268900000000     0.563775000000     0          
O        O      0.666666666667     0.249200000000     0.500000000000     0          
O        O      0.909233333333     0.144100000000     0.715075000000     0          
O        O      0.984266666667     0.186100000000     0.690025000000     0          
O        O      0.910900000000     0.185600000000     0.635725000000     0          
O        O      0.960333333333     0.113500000000     0.647275000000     0          
O        O      0.945033333333     0.340500000000     0.698075000000     0          
O        O      0.919333333333     0.419600000000     0.723600000000     0          
O        O      0.947166666667     0.000000000000     0.520175000000     0          
O        O      0.976933333333     0.052600000000     0.585800000000     0          
O        O      0.982366666667     0.269000000000     0.663750000000     0          
O        O      0.894900000000     0.268900000000     0.686225000000     0          
O        O      0.909233333333     0.855900000000     0.715075000000     0          
O        O      0.984266666667     0.813900000000     0.690025000000     0          
O        O      0.910900000000     0.814400000000     0.635725000000     0          
O        O      0.960333333333     0.886500000000     0.647275000000     0          
O        O      0.666666666667     0.611000000000     0.500000000000     0          
O        O      0.945033333333     0.659500000000     0.698075000000     0          
O        O      0.919333333333     0.580400000000     0.723600000000     0          
O        O      0.666666666667     0.932400000000     0.500000000000     0          
O        O      0.976933333333     0.947400000000     0.585800000000     0          
O        O      0.982366666667     0.731000000000     0.663750000000     0          
O        O      0.894900000000     0.731100000000     0.686225000000     0          
O        O      0.666666666667     0.750800000000     0.500000000000     0          
O        O      0.757433333333     0.855900000000     0.534925000000     0          
O        O      0.682400000000     0.813900000000     0.559975000000     0          
O        O      0.755766666667     0.814400000000     0.614275000000     0          
O        O      0.706333333333     0.886500000000     0.602725000000     0          
O        O      0.721633333333     0.659500000000     0.551925000000     0          
O        O      0.747333333333     0.580400000000     0.526400000000     0          
O        O      0.689733333333     0.947400000000     0.664200000000     0          
O        O      0.684300000000     0.731000000000     0.586250000000     0          
O        O      0.771766666667     0.731100000000     0.563775000000     0          
O        O      0.924100000000     0.644100000000     0.534925000000     0          
O        O      0.849066666667     0.686100000000     0.559975000000     0          
O        O      0.922433333333     0.685600000000     0.614275000000     0          
O        O      0.873000000000     0.613500000000     0.602725000000     0          
O        O      0.833333333333     0.889000000000     0.500000000000     0          
O        O      0.888300000000     0.840500000000     0.551925000000     0          
O        O      0.914000000000     0.919600000000     0.526400000000     0          
O        O      0.886166666667     0.500000000000     0.729825000000     0          
O        O      0.833333333333     0.567600000000     0.500000000000     0          
O        O      0.856400000000     0.552600000000     0.664200000000     0          
O        O      0.850966666667     0.769000000000     0.586250000000     0          
O        O      0.938433333333     0.768900000000     0.563775000000     0          
O        O      0.833333333333     0.749200000000     0.500000000000     0          
O        O      0.742566666667     0.644100000000     0.715075000000     0          
O        O      0.817600000000     0.686100000000     0.690025000000     0          
O        O      0.744233333333     0.685600000000     0.635725000000     0          
O        O      0.793666666667     0.613500000000     0.647275000000     0          
O        O      0.778366666667     0.840500000000     0.698075000000     0          
O        O      0.752666666667     0.919600000000     0.723600000000     0          
O        O      0.780500000000     0.500000000000     0.520175000000     0          
O        O      0.810266666667     0.552600000000     0.585800000000     0          
O        O      0.815700000000     0.769000000000     0.663750000000     0          
O        O      0.728233333333     0.768900000000     0.686225000000     0          
O        O      0.742566666667     0.355900000000     0.715075000000     0          
O        O      0.817600000000     0.313900000000     0.690025000000     0          
O        O      0.744233333333     0.314400000000     0.635725000000     0          
O        O      0.793666666667     0.386500000000     0.647275000000     0          
O        O      0.833333333333     0.111000000000     0.500000000000     0          
O        O      0.778366666667     0.159500000000     0.698075000000     0          
O        O      0.752666666667     0.080400000000     0.723600000000     0          
O        O      0.833333333333     0.432400000000     0.500000000000     0          
O        O      0.810266666667     0.447400000000     0.585800000000     0          
O        O      0.815700000000     0.231000000000     0.663750000000     0          
O        O      0.728233333333     0.231100000000     0.686225000000     0          
O        O      0.833333333333     0.250800000000     0.500000000000     0          
O        O      0.924100000000     0.355900000000     0.534925000000     0          
O        O      0.849066666667     0.313900000000     0.559975000000     0          
O        O      0.922433333333     0.314400000000     0.614275000000     0          
O        O      0.873000000000     0.386500000000     0.602725000000     0          
O        O      0.888300000000     0.159500000000     0.551925000000     0          
O        O      0.914000000000     0.080400000000     0.526400000000     0          
O        O      0.856400000000     0.447400000000     0.664200000000     0          
O        O      0.850966666667     0.231000000000     0.586250000000     0          
O        O      0.938433333333     0.231100000000     0.563775000000     0          
O        O      0.757433333333     0.144100000000     0.784925000000     0          
O        O      0.682400000000     0.186100000000     0.809975000000     0          
O        O      0.755766666667     0.185600000000     0.864275000000     0          
O        O      0.706333333333     0.113500000000     0.852725000000     0          
O        O      0.666666666667     0.389000000000     0.750000000000     0          
O        O      0.721633333333     0.340500000000     0.801925000000     0          
O        O      0.747333333333     0.419600000000     0.776400000000     0          
O        O      0.719500000000     0.000000000000     0.979825000000     0          
O        O      0.666666666667     0.067600000000     0.750000000000     0          
O        O      0.689733333333     0.052600000000     0.914200000000     0          
O        O      0.684300000000     0.269000000000     0.836250000000     0          
O        O      0.771766666667     0.268900000000     0.813775000000     0          
O        O      0.666666666667     0.249200000000     0.750000000000     0          
O        O      0.909233333333     0.144100000000     0.965075000000     0          
O        O      0.984266666667     0.186100000000     0.940025000000     0          
O        O      0.910900000000     0.185600000000     0.885725000000     0          
O        O      0.960333333333     0.113500000000     0.897275000000     0          
O        O      0.945033333333     0.340500000000     0.948075000000     0          
O        O      0.919333333333     0.419600000000     0.973600000000     0          
O        O      0.947166666667     0.000000000000     0.770175000000     0          
O        O      0.976933333333     0.052600000000     0.835800000000     0          
O        O      0.982366666667     0.269000000000     0.913750000000     0          
O        O      0.894900000000     0.268900000000     0.936225000000     0          
O        O      0.909233333333     0.855900000000     0.965075000000     0          
O        O      0.984266666667     0.813900000000     0.940025000000     0          
O        O      0.910900000000     0.814400000000     0.885725000000     0          
O        O      0.960333333333     0.886500000000     0.897275000000     0          
O        O      0.666666666667     0.611000000000     0.750000000000     0          
O        O      0.945033333333     0.659500000000     0.948075000000     0          
O        O      0.919333333333     0.580400000000     0.973600000000     0          
O        O      0.666666666667     0.932400000000     0.750000000000     0          
O        O      0.976933333333     0.947400000000     0.835800000000     0          
O        O      0.982366666667     0.731000000000     0.913750000000     0          
O        O      0.894900000000     0.731100000000     0.936225000000     0          
O        O      0.666666666667     0.750800000000     0.750000000000     0          
O        O      0.757433333333     0.855900000000     0.784925000000     0          
O        O      0.682400000000     0.813900000000     0.809975000000     0          
O        O      0.755766666667     0.814400000000     0.864275000000     0          
O        O      0.706333333333     0.886500000000     0.852725000000     0          
O        O      0.721633333333     0.659500000000     0.801925000000     0          
O        O      0.747333333333     0.580400000000     0.776400000000     0          
O        O      0.689733333333     0.947400000000     0.914200000000     0          
O        O      0.684300000000     0.731000000000     0.836250000000     0          
O        O      0.771766666667     0.731100000000     0.813775000000     0          
O        O      0.924100000000     0.644100000000     0.784925000000     0          
O        O      0.849066666667     0.686100000000     0.809975000000     0          
O        O      0.922433333333     0.685600000000     0.864275000000     0          
O        O      0.873000000000     0.613500000000     0.852725000000     0          
O        O      0.833333333333     0.889000000000     0.750000000000     0          
O        O      0.888300000000     0.840500000000     0.801925000000     0          
O        O      0.914000000000     0.919600000000     0.776400000000     0          
O        O      0.886166666667     0.500000000000     0.979825000000     0          
O        O      0.833333333333     0.567600000000     0.750000000000     0          
O        O      0.856400000000     0.552600000000     0.914200000000     0          
O        O      0.850966666667     0.769000000000     0.836250000000     0          
O        O      0.938433333333     0.768900000000     0.813775000000     0          
O        O      0.833333333333     0.749200000000     0.750000000000     0          
O        O      0.742566666667     0.644100000000     0.965075000000     0          
O        O      0.817600000000     0.686100000000     0.940025000000     0          
O        O      0.744233333333     0.685600000000     0.885725000000     0          
O        O      0.793666666667     0.613500000000     0.897275000000     0          
O        O      0.778366666667     0.840500000000     0.948075000000     0          
O        O      0.752666666667     0.919600000000     0.973600000000     0          
O        O      0.780500000000     0.500000000000     0.770175000000     0          
O        O      0.810266666667     0.552600000000     0.835800000000     0          
O        O      0.815700000000     0.769000000000     0.913750000000     0          
O        O      0.728233333333     0.768900000000     0.936225000000     0          
O        O      0.742566666667     0.355900000000     0.965075000000     0          
O        O      0.817600000000     0.313900000000     0.940025000000     0          
O        O      0.744233333333     0.314400000000     0.885725000000     0          
O        O      0.793666666667     0.386500000000     0.897275000000     0          
O        O      0.833333333333     0.111000000000     0.750000000000     0          
O        O      0.778366666667     0.159500000000     0.948075000000     0          
O        O      0.752666666667     0.080400000000     0.973600000000     0          
O        O      0.833333333333     0.432400000000     0.750000000000     0          
O        O      0.810266666667     0.447400000000     0.835800000000     0          
O        O      0.815700000000     0.231000000000     0.913750000000     0          
O        O      0.728233333333     0.231100000000     0.936225000000     0          
O        O      0.833333333333     0.250800000000     0.750000000000     0          
O        O      0.924100000000     0.355900000000     0.784925000000     0          
O        O      0.849066666667     0.313900000000     0.809975000000     0          
O        O      0.922433333333     0.314400000000     0.864275000000     0          
O        O      0.873000000000     0.386500000000     0.852725000000     0          
O        O      0.888300000000     0.159500000000     0.801925000000     0          
O        O      0.914000000000     0.080400000000     0.776400000000     0          
O        O      0.856400000000     0.447400000000     0.914200000000     0          
O        O      0.850966666667     0.231000000000     0.836250000000     0          
O        O      0.938433333333     0.231100000000     0.813775000000     0          


