data_zeolite

_audit_creation_method RASPA-1.0
_audit_creation_date 2022-1-5
_audit_author_name ''

_cell_length_a    43.2142
_cell_length_b    43.2142
_cell_length_c    50.3545
_cell_angle_alpha 90
_cell_angle_beta  90
_cell_angle_gamma 120
_cell_volume      81437.1

_symmetry_cell_setting          hexagonal
_symmetry_space_group_name_Hall 'P 1'
_symmetry_space_group_name_H-M  'P 1'
_symmetry_Int_Tables_number     1

_symmetry_equiv_pos_as_xyz 'x,y,z'

loop_
_atom_site_label
_atom_site_type_symbol
_atom_site_fract_x
_atom_site_fract_y
_atom_site_fract_z
_atom_site_charge
Si       Si     0.241970000000     0.222203333333     0.919450000000     0          
Si       Si     0.091143333333     0.110963333333     0.080170000000     0          
Si       Si     0.313546666667     0.091350000000     0.855620000000     0          
Si       Si     0.019860000000     0.242150000000     0.144030000000     0          
Si       Si     0.032840000000     0.300493333333     0.931180000000     0          
Si       Si     0.300593333333     0.032740000000     0.068340000000     0          
Si       Si     0.289213333333     0.144606666667     0.568100000000     0          
Si       Si     0.045433333333     0.189383333333     0.431240000000     0          
Si       Si     0.041150000000     0.292183333333     0.827460000000     0          
Si       Si     0.292210000000     0.041123333333     0.172200000000     0          
Si       Si     0.181053333333     0.152280000000     0.827390000000     0          
Si       Si     0.152336666667     0.180996666667     0.171850000000     0          
Si       Si     0.153303333333     0.180030000000     0.779980000000     0          
Si       Si     0.179973333333     0.153360000000     0.219340000000     0          
Si       Si     0.264386666667     0.068946666667     0.280080000000     0          
Si       Si     0.068986666667     0.264346666667     0.719490000000     0          
Si       Si     0.111110000000     0.222223333333     0.467790000000     0          
Si       Si     0.111110000000     0.222223333333     0.103910000000     0          
Si       Si     0.222223333333     0.111110000000     0.894750000000     0          
Si       Si     0.222223333333     0.111110000000     0.830890000000     0          
Si       Si     0.111110000000     0.222223333333     0.167770000000     0          
Si       Si     0.000000000000     0.000000000000     0.967750000000     0          
Si       Si     0.000000000000     0.000000000000     0.031620000000     0          
Si       Si     0.000000000000     0.000000000000     0.894700000000     0          
Si       Si     0.000000000000     0.000000000000     0.104980000000     0          
Si       Si     0.000000000000     0.000000000000     0.830840000000     0          
Si       Si     0.000000000000     0.000000000000     0.168840000000     0          
O        O      0.292726666667     0.313030000000     0.957170000000     0          
O        O      0.000000000000     0.000000000000     0.999690000000     0          
O        O      0.040566666667     0.020283333333     0.042270000000     0          
O        O      0.201913333333     0.070493333333     0.957230000000     0          
O        O      0.111110000000     0.222223333333     0.499760000000     0          
O        O      0.133026666667     0.266053333333     0.041160000000     0          
O        O      0.014550000000     0.257610000000     0.930780000000     0          
O        O      0.020320000000     0.313013333333     0.905170000000     0          
O        O      0.318906666667     0.075610000000     0.068720000000     0          
O        O      0.313033333333     0.020300000000     0.094430000000     0          
O        O      0.313733333333     0.187460000000     0.569200000000     0          
O        O      0.262806666667     0.131403333333     0.593340000000     0          
O        O      0.020836666667     0.146496666667     0.430850000000     0          
O        O      0.070473333333     0.201903333333     0.405230000000     0          
O        O      0.277776666667     0.222220000000     0.928340000000     0          
O        O      0.239943333333     0.222136666667     0.887540000000     0          
O        O      0.055903333333     0.111806666667     0.070900000000     0          
O        O      0.092530000000     0.110653333333     0.112090000000     0          
O        O      0.000000000000     0.000000000000     0.862770000000     0          
O        O      0.000000000000     0.000000000000     0.136910000000     0          
O        O      0.222223333333     0.111110000000     0.862820000000     0          
O        O      0.111110000000     0.222223333333     0.135850000000     0          
O        O      0.292880000000     0.313106666667     0.820040000000     0          
O        O      0.040426666667     0.020213333333     0.179690000000     0          
O        O      0.201996666667     0.070660000000     0.820090000000     0          
O        O      0.131320000000     0.262640000000     0.178660000000     0          
O        O      0.277746666667     0.055586666667     0.846680000000     0          
O        O      0.015070000000     0.091210000000     0.844490000000     0          
O        O      0.313543333333     0.126236666667     0.844400000000     0          
O        O      0.055693333333     0.277640000000     0.153320000000     0          
O        O      0.318320000000     0.242246666667     0.155160000000     0          
O        O      0.019470000000     0.206913333333     0.154870000000     0          
O        O      0.052160000000     0.281173333333     0.800020000000     0          
O        O      0.281160000000     0.052173333333     0.199600000000     0          
O        O      0.170100000000     0.163233333333     0.799900000000     0          
O        O      0.163140000000     0.170193333333     0.199480000000     0          
O        O      0.160153333333     0.173180000000     0.749670000000     0          
O        O      0.171730000000     0.222196666667     0.785650000000     0          
O        O      0.222173333333     0.171740000000     0.213800000000     0          
O        O      0.271233333333     0.062100000000     0.249770000000     0          
Si       Si     0.019766666667     0.241970000000     0.419450000000     0          
Si       Si     0.313513333333     0.091143333333     0.580170000000     0          
Si       Si     0.222196666667     0.313546666667     0.355620000000     0          
Si       Si     0.111043333333     0.019860000000     0.644030000000     0          
Si       Si     0.065680000000     0.032840000000     0.431180000000     0          
Si       Si     0.267853333333     0.300593333333     0.568340000000     0          
Si       Si     0.144606666667     0.289213333333     0.068100000000     0          
Si       Si     0.189383333333     0.045433333333     0.931240000000     0          
Si       Si     0.082300000000     0.041150000000     0.327460000000     0          
Si       Si     0.251086666667     0.292210000000     0.672200000000     0          
Si       Si     0.028773333333     0.181053333333     0.327390000000     0          
Si       Si     0.304673333333     0.152336666667     0.671850000000     0          
Si       Si     0.306606666667     0.153303333333     0.279980000000     0          
Si       Si     0.026613333333     0.179973333333     0.719340000000     0          
Si       Si     0.195440000000     0.264386666667     0.780080000000     0          
Si       Si     0.137973333333     0.068986666667     0.219490000000     0          
Si       Si     0.222220000000     0.111110000000     0.967790000000     0          
Si       Si     0.222220000000     0.111110000000     0.603910000000     0          
Si       Si     0.111113333333     0.222223333333     0.394750000000     0          
Si       Si     0.111113333333     0.222223333333     0.330890000000     0          
Si       Si     0.222220000000     0.111110000000     0.667770000000     0          
Si       Si     0.000000000000     0.000000000000     0.467750000000     0          
Si       Si     0.000000000000     0.000000000000     0.531620000000     0          
Si       Si     0.000000000000     0.000000000000     0.394700000000     0          
Si       Si     0.000000000000     0.000000000000     0.604980000000     0          
Si       Si     0.000000000000     0.000000000000     0.330840000000     0          
Si       Si     0.000000000000     0.000000000000     0.668840000000     0          
O        O      0.313030000000     0.292726666667     0.457170000000     0          
O        O      0.000000000000     0.000000000000     0.499690000000     0          
O        O      0.020283333333     0.040566666667     0.542270000000     0          
O        O      0.131420000000     0.201913333333     0.457230000000     0          
O        O      0.222220000000     0.111110000000     0.999760000000     0          
O        O      0.200306666667     0.133026666667     0.541160000000     0          
O        O      0.090273333333     0.014550000000     0.430780000000     0          
O        O      0.040640000000     0.020320000000     0.405170000000     0          
O        O      0.243296666667     0.318906666667     0.568720000000     0          
O        O      0.292733333333     0.313033333333     0.594430000000     0          
O        O      0.126273333333     0.313733333333     0.069200000000     0          
O        O      0.131403333333     0.262806666667     0.093340000000     0          
O        O      0.207673333333     0.020836666667     0.930850000000     0          
O        O      0.201903333333     0.070473333333     0.905230000000     0          
O        O      0.055556666667     0.277776666667     0.428340000000     0          
O        O      0.017806666667     0.239943333333     0.387540000000     0          
O        O      0.277430000000     0.055903333333     0.570900000000     0          
O        O      0.315210000000     0.092530000000     0.612090000000     0          
O        O      0.000000000000     0.000000000000     0.362770000000     0          
O        O      0.000000000000     0.000000000000     0.636910000000     0          
O        O      0.111113333333     0.222223333333     0.362820000000     0          
O        O      0.222220000000     0.111110000000     0.635850000000     0          
O        O      0.313106666667     0.292880000000     0.320040000000     0          
O        O      0.020213333333     0.040426666667     0.679690000000     0          
O        O      0.131336666667     0.201996666667     0.320090000000     0          
O        O      0.202013333333     0.131320000000     0.678660000000     0          
O        O      0.222160000000     0.277746666667     0.346680000000     0          
O        O      0.257193333333     0.015070000000     0.344490000000     0          
O        O      0.187306666667     0.313543333333     0.344400000000     0          
O        O      0.111386666667     0.055693333333     0.653320000000     0          
O        O      0.076073333333     0.318320000000     0.655160000000     0          
O        O      0.145890000000     0.019470000000     0.654870000000     0          
O        O      0.104320000000     0.052160000000     0.300020000000     0          
O        O      0.228986666667     0.281160000000     0.699600000000     0          
O        O      0.006866666667     0.170100000000     0.299900000000     0          
O        O      0.326280000000     0.163140000000     0.699480000000     0          
O        O      0.320306666667     0.160153333333     0.249670000000     0          
O        O      0.282866666667     0.171730000000     0.285650000000     0          
O        O      0.050433333333     0.222173333333     0.713800000000     0          
O        O      0.209133333333     0.271233333333     0.749770000000     0          
Si       Si     0.111130000000     0.019766666667     0.919450000000     0          
Si       Si     0.222370000000     0.313513333333     0.080170000000     0          
Si       Si     0.241983333333     0.222196666667     0.855620000000     0          
Si       Si     0.091183333333     0.111043333333     0.144030000000     0          
Si       Si     0.032840000000     0.065680000000     0.931180000000     0          
Si       Si     0.300593333333     0.267853333333     0.068340000000     0          
Si       Si     0.188726666667     0.144606666667     0.568100000000     0          
Si       Si     0.143950000000     0.189383333333     0.431240000000     0          
Si       Si     0.041150000000     0.082300000000     0.827460000000     0          
Si       Si     0.292210000000     0.251086666667     0.172200000000     0          
Si       Si     0.181053333333     0.028773333333     0.827390000000     0          
Si       Si     0.152336666667     0.304673333333     0.171850000000     0          
Si       Si     0.153303333333     0.306606666667     0.779980000000     0          
Si       Si     0.179973333333     0.026613333333     0.219340000000     0          
Si       Si     0.264386666667     0.195440000000     0.280080000000     0          
Si       Si     0.068986666667     0.137973333333     0.719490000000     0          
O        O      0.020303333333     0.313030000000     0.957170000000     0          
O        O      0.313050000000     0.020283333333     0.042270000000     0          
O        O      0.262840000000     0.131420000000     0.957230000000     0          
O        O      0.067280000000     0.200306666667     0.041160000000     0          
O        O      0.075723333333     0.090273333333     0.930780000000     0          
O        O      0.020320000000     0.040640000000     0.905170000000     0          
O        O      0.257723333333     0.243296666667     0.068720000000     0          
O        O      0.313033333333     0.292733333333     0.094430000000     0          
O        O      0.145873333333     0.126273333333     0.569200000000     0          
O        O      0.201930000000     0.131403333333     0.593340000000     0          
O        O      0.186836666667     0.207673333333     0.430850000000     0          
O        O      0.131430000000     0.201903333333     0.405230000000     0          
O        O      0.111113333333     0.055556666667     0.928340000000     0          
O        O      0.111196666667     0.017806666667     0.887540000000     0          
O        O      0.221526666667     0.277430000000     0.070900000000     0          
O        O      0.222680000000     0.315210000000     0.112090000000     0          
O        O      0.020226666667     0.313106666667     0.820040000000     0          
O        O      0.313120000000     0.020213333333     0.179690000000     0          
O        O      0.262673333333     0.131336666667     0.820090000000     0          
O        O      0.070693333333     0.202013333333     0.178660000000     0          
O        O      0.277746666667     0.222160000000     0.846680000000     0          
O        O      0.242123333333     0.257193333333     0.844490000000     0          
O        O      0.207096666667     0.187306666667     0.844400000000     0          
O        O      0.055693333333     0.111386666667     0.153320000000     0          
O        O      0.091086666667     0.076073333333     0.155160000000     0          
O        O      0.126420000000     0.145890000000     0.154870000000     0          
O        O      0.052160000000     0.104320000000     0.800020000000     0          
O        O      0.281160000000     0.228986666667     0.199600000000     0          
O        O      0.170100000000     0.006866666667     0.799900000000     0          
O        O      0.163140000000     0.326280000000     0.199480000000     0          
O        O      0.160153333333     0.320306666667     0.749670000000     0          
O        O      0.111136666667     0.282866666667     0.785650000000     0          
O        O      0.161593333333     0.050433333333     0.213800000000     0          
O        O      0.271233333333     0.209133333333     0.249770000000     0          
Si       Si     0.091363333333     0.111130000000     0.419450000000     0          
Si       Si     0.242190000000     0.222370000000     0.580170000000     0          
Si       Si     0.019786666667     0.241983333333     0.355620000000     0          
Si       Si     0.313473333333     0.091183333333     0.644030000000     0          
Si       Si     0.300493333333     0.032840000000     0.431180000000     0          
Si       Si     0.032740000000     0.300593333333     0.568340000000     0          
Si       Si     0.044120000000     0.188726666667     0.068100000000     0          
Si       Si     0.287900000000     0.143950000000     0.931240000000     0          
Si       Si     0.292183333333     0.041150000000     0.327460000000     0          
Si       Si     0.041123333333     0.292210000000     0.672200000000     0          
Si       Si     0.152280000000     0.181053333333     0.327390000000     0          
Si       Si     0.180996666667     0.152336666667     0.671850000000     0          
Si       Si     0.180030000000     0.153303333333     0.279980000000     0          
Si       Si     0.153360000000     0.179973333333     0.719340000000     0          
Si       Si     0.068946666667     0.264386666667     0.780080000000     0          
Si       Si     0.264346666667     0.068986666667     0.219490000000     0          
O        O      0.040606666667     0.020303333333     0.457170000000     0          
O        O      0.292766666667     0.313050000000     0.542270000000     0          
O        O      0.131420000000     0.262840000000     0.457230000000     0          
O        O      0.200306666667     0.067280000000     0.541160000000     0          
O        O      0.318783333333     0.075723333333     0.430780000000     0          
O        O      0.313013333333     0.020320000000     0.405170000000     0          
O        O      0.014426666667     0.257723333333     0.568720000000     0          
O        O      0.020300000000     0.313033333333     0.594430000000     0          
O        O      0.019600000000     0.145873333333     0.069200000000     0          
O        O      0.070526666667     0.201930000000     0.093340000000     0          
O        O      0.312496666667     0.186836666667     0.930850000000     0          
O        O      0.262860000000     0.131430000000     0.905230000000     0          
O        O      0.055556666667     0.111113333333     0.428340000000     0          
O        O      0.093390000000     0.111196666667     0.387540000000     0          
O        O      0.277430000000     0.221526666667     0.570900000000     0          
O        O      0.240803333333     0.222680000000     0.612090000000     0          
O        O      0.040453333333     0.020226666667     0.320040000000     0          
O        O      0.292906666667     0.313120000000     0.679690000000     0          
O        O      0.131336666667     0.262673333333     0.320090000000     0          
O        O      0.202013333333     0.070693333333     0.678660000000     0          
O        O      0.055586666667     0.277746666667     0.346680000000     0          
O        O      0.318263333333     0.242123333333     0.344490000000     0          
O        O      0.019790000000     0.207096666667     0.344400000000     0          
O        O      0.277640000000     0.055693333333     0.653320000000     0          
O        O      0.015013333333     0.091086666667     0.655160000000     0          
O        O      0.313863333333     0.126420000000     0.654870000000     0          
O        O      0.281173333333     0.052160000000     0.300020000000     0          
O        O      0.052173333333     0.281160000000     0.699600000000     0          
O        O      0.163233333333     0.170100000000     0.299900000000     0          
O        O      0.170193333333     0.163140000000     0.699480000000     0          
O        O      0.173180000000     0.160153333333     0.249670000000     0          
O        O      0.161603333333     0.111136666667     0.285650000000     0          
O        O      0.111160000000     0.161593333333     0.713800000000     0          
O        O      0.062100000000     0.271233333333     0.749770000000     0          
Si       Si     0.313566666667     0.091363333333     0.919450000000     0          
Si       Si     0.019820000000     0.242190000000     0.080170000000     0          
Si       Si     0.111136666667     0.019786666667     0.855620000000     0          
Si       Si     0.222290000000     0.313473333333     0.144030000000     0          
Si       Si     0.267653333333     0.300493333333     0.931180000000     0          
Si       Si     0.065480000000     0.032740000000     0.068340000000     0          
Si       Si     0.188726666667     0.044120000000     0.568100000000     0          
Si       Si     0.143950000000     0.287900000000     0.431240000000     0          
Si       Si     0.251033333333     0.292183333333     0.827460000000     0          
Si       Si     0.082246666667     0.041123333333     0.172200000000     0          
Si       Si     0.304560000000     0.152280000000     0.827390000000     0          
Si       Si     0.028660000000     0.180996666667     0.171850000000     0          
Si       Si     0.026726666667     0.180030000000     0.779980000000     0          
Si       Si     0.306720000000     0.153360000000     0.219340000000     0          
Si       Si     0.137893333333     0.068946666667     0.280080000000     0          
Si       Si     0.195360000000     0.264346666667     0.719490000000     0          
O        O      0.020303333333     0.040606666667     0.957170000000     0          
O        O      0.313050000000     0.292766666667     0.042270000000     0          
O        O      0.201913333333     0.131420000000     0.957230000000     0          
O        O      0.133026666667     0.200306666667     0.041160000000     0          
O        O      0.243060000000     0.318783333333     0.930780000000     0          
O        O      0.292693333333     0.313013333333     0.905170000000     0          
O        O      0.090036666667     0.014426666667     0.068720000000     0          
O        O      0.040600000000     0.020300000000     0.094430000000     0          
O        O      0.207060000000     0.019600000000     0.569200000000     0          
O        O      0.201930000000     0.070526666667     0.593340000000     0          
O        O      0.125660000000     0.312496666667     0.430850000000     0          
O        O      0.131430000000     0.262860000000     0.405230000000     0          
O        O      0.277776666667     0.055556666667     0.928340000000     0          
O        O      0.315526666667     0.093390000000     0.887540000000     0          
O        O      0.055903333333     0.277430000000     0.070900000000     0          
O        O      0.018123333333     0.240803333333     0.112090000000     0          
O        O      0.020226666667     0.040453333333     0.820040000000     0          
O        O      0.313120000000     0.292906666667     0.179690000000     0          
O        O      0.201996666667     0.131336666667     0.820090000000     0          
O        O      0.131320000000     0.202013333333     0.178660000000     0          
O        O      0.111173333333     0.055586666667     0.846680000000     0          
O        O      0.076140000000     0.318263333333     0.844490000000     0          
O        O      0.146026666667     0.019790000000     0.844400000000     0          
O        O      0.221946666667     0.277640000000     0.153320000000     0          
O        O      0.257260000000     0.015013333333     0.155160000000     0          
O        O      0.187443333333     0.313863333333     0.154870000000     0          
O        O      0.229013333333     0.281173333333     0.800020000000     0          
O        O      0.104346666667     0.052173333333     0.199600000000     0          
O        O      0.326466666667     0.163233333333     0.799900000000     0          
O        O      0.007053333333     0.170193333333     0.199480000000     0          
O        O      0.013026666667     0.173180000000     0.749670000000     0          
O        O      0.050466666667     0.161603333333     0.785650000000     0          
O        O      0.282900000000     0.111160000000     0.213800000000     0          
O        O      0.124200000000     0.062100000000     0.249770000000     0          
Si       Si     0.222203333333     0.313566666667     0.419450000000     0          
Si       Si     0.110963333333     0.019820000000     0.580170000000     0          
Si       Si     0.091350000000     0.111136666667     0.355620000000     0          
Si       Si     0.242150000000     0.222290000000     0.644030000000     0          
Si       Si     0.300493333333     0.267653333333     0.431180000000     0          
Si       Si     0.032740000000     0.065480000000     0.568340000000     0          
Si       Si     0.144606666667     0.188726666667     0.068100000000     0          
Si       Si     0.189383333333     0.143950000000     0.931240000000     0          
Si       Si     0.292183333333     0.251033333333     0.327460000000     0          
Si       Si     0.041123333333     0.082246666667     0.672200000000     0          
Si       Si     0.152280000000     0.304560000000     0.327390000000     0          
Si       Si     0.180996666667     0.028660000000     0.671850000000     0          
Si       Si     0.180030000000     0.026726666667     0.279980000000     0          
Si       Si     0.153360000000     0.306720000000     0.719340000000     0          
Si       Si     0.068946666667     0.137893333333     0.780080000000     0          
Si       Si     0.264346666667     0.195360000000     0.219490000000     0          
O        O      0.313030000000     0.020303333333     0.457170000000     0          
O        O      0.020283333333     0.313050000000     0.542270000000     0          
O        O      0.070493333333     0.201913333333     0.457230000000     0          
O        O      0.266053333333     0.133026666667     0.541160000000     0          
O        O      0.257610000000     0.243060000000     0.430780000000     0          
O        O      0.313013333333     0.292693333333     0.405170000000     0          
O        O      0.075610000000     0.090036666667     0.568720000000     0          
O        O      0.020300000000     0.040600000000     0.594430000000     0          
O        O      0.187460000000     0.207060000000     0.069200000000     0          
O        O      0.131403333333     0.201930000000     0.093340000000     0          
O        O      0.146496666667     0.125660000000     0.930850000000     0          
O        O      0.201903333333     0.131430000000     0.905230000000     0          
O        O      0.222220000000     0.277776666667     0.428340000000     0          
O        O      0.222136666667     0.315526666667     0.387540000000     0          
O        O      0.111806666667     0.055903333333     0.570900000000     0          
O        O      0.110653333333     0.018123333333     0.612090000000     0          
O        O      0.313106666667     0.020226666667     0.320040000000     0          
O        O      0.020213333333     0.313120000000     0.679690000000     0          
O        O      0.070660000000     0.201996666667     0.320090000000     0          
O        O      0.262640000000     0.131320000000     0.678660000000     0          
O        O      0.055586666667     0.111173333333     0.346680000000     0          
O        O      0.091210000000     0.076140000000     0.344490000000     0          
O        O      0.126236666667     0.146026666667     0.344400000000     0          
O        O      0.277640000000     0.221946666667     0.653320000000     0          
O        O      0.242246666667     0.257260000000     0.655160000000     0          
O        O      0.206913333333     0.187443333333     0.654870000000     0          
O        O      0.281173333333     0.229013333333     0.300020000000     0          
O        O      0.052173333333     0.104346666667     0.699600000000     0          
O        O      0.163233333333     0.326466666667     0.299900000000     0          
O        O      0.170193333333     0.007053333333     0.699480000000     0          
O        O      0.173180000000     0.013026666667     0.249670000000     0          
O        O      0.222196666667     0.050466666667     0.285650000000     0          
O        O      0.171740000000     0.282900000000     0.713800000000     0          
O        O      0.062100000000     0.124200000000     0.749770000000     0          
Si       Si     0.222203333333     0.241970000000     0.419450000000     0          
Si       Si     0.110963333333     0.091143333333     0.580170000000     0          
Si       Si     0.091350000000     0.313546666667     0.355620000000     0          
Si       Si     0.242150000000     0.019860000000     0.644030000000     0          
O        O      0.257610000000     0.014550000000     0.430780000000     0          
O        O      0.075610000000     0.318906666667     0.568720000000     0          
O        O      0.187460000000     0.313733333333     0.069200000000     0          
O        O      0.146496666667     0.020836666667     0.930850000000     0          
O        O      0.222136666667     0.239943333333     0.387540000000     0          
O        O      0.110653333333     0.092530000000     0.612090000000     0          
O        O      0.091210000000     0.015070000000     0.344490000000     0          
O        O      0.126236666667     0.313543333333     0.344400000000     0          
O        O      0.242246666667     0.318320000000     0.655160000000     0          
O        O      0.206913333333     0.019470000000     0.654870000000     0          
O        O      0.222196666667     0.171730000000     0.285650000000     0          
O        O      0.171740000000     0.222173333333     0.713800000000     0          
Si       Si     0.313566666667     0.222203333333     0.919450000000     0          
Si       Si     0.019820000000     0.110963333333     0.080170000000     0          
Si       Si     0.111136666667     0.091350000000     0.855620000000     0          
Si       Si     0.222290000000     0.242150000000     0.144030000000     0          
O        O      0.243060000000     0.257610000000     0.930780000000     0          
O        O      0.090036666667     0.075610000000     0.068720000000     0          
O        O      0.207060000000     0.187460000000     0.569200000000     0          
O        O      0.125660000000     0.146496666667     0.430850000000     0          
O        O      0.315526666667     0.222136666667     0.887540000000     0          
O        O      0.018123333333     0.110653333333     0.112090000000     0          
O        O      0.076140000000     0.091210000000     0.844490000000     0          
O        O      0.146026666667     0.126236666667     0.844400000000     0          
O        O      0.257260000000     0.242246666667     0.155160000000     0          
O        O      0.187443333333     0.206913333333     0.154870000000     0          
O        O      0.050466666667     0.222196666667     0.785650000000     0          
O        O      0.282900000000     0.171740000000     0.213800000000     0          
Si       Si     0.091363333333     0.313566666667     0.419450000000     0          
Si       Si     0.242190000000     0.019820000000     0.580170000000     0          
Si       Si     0.019786666667     0.111136666667     0.355620000000     0          
Si       Si     0.313473333333     0.222290000000     0.644030000000     0          
O        O      0.318783333333     0.243060000000     0.430780000000     0          
O        O      0.014426666667     0.090036666667     0.568720000000     0          
O        O      0.019600000000     0.207060000000     0.069200000000     0          
O        O      0.312496666667     0.125660000000     0.930850000000     0          
O        O      0.093390000000     0.315526666667     0.387540000000     0          
O        O      0.240803333333     0.018123333333     0.612090000000     0          
O        O      0.318263333333     0.076140000000     0.344490000000     0          
O        O      0.019790000000     0.146026666667     0.344400000000     0          
O        O      0.015013333333     0.257260000000     0.655160000000     0          
O        O      0.313863333333     0.187443333333     0.654870000000     0          
O        O      0.161603333333     0.050466666667     0.285650000000     0          
O        O      0.111160000000     0.282900000000     0.713800000000     0          
Si       Si     0.111130000000     0.091363333333     0.919450000000     0          
Si       Si     0.222370000000     0.242190000000     0.080170000000     0          
Si       Si     0.241983333333     0.019786666667     0.855620000000     0          
Si       Si     0.091183333333     0.313473333333     0.144030000000     0          
O        O      0.075723333333     0.318783333333     0.930780000000     0          
O        O      0.257723333333     0.014426666667     0.068720000000     0          
O        O      0.145873333333     0.019600000000     0.569200000000     0          
O        O      0.186836666667     0.312496666667     0.430850000000     0          
O        O      0.111196666667     0.093390000000     0.887540000000     0          
O        O      0.222680000000     0.240803333333     0.112090000000     0          
O        O      0.242123333333     0.318263333333     0.844490000000     0          
O        O      0.207096666667     0.019790000000     0.844400000000     0          
O        O      0.091086666667     0.015013333333     0.155160000000     0          
O        O      0.126420000000     0.313863333333     0.154870000000     0          
O        O      0.111136666667     0.161603333333     0.785650000000     0          
O        O      0.161593333333     0.111160000000     0.213800000000     0          
Si       Si     0.019766666667     0.111130000000     0.419450000000     0          
Si       Si     0.313513333333     0.222370000000     0.580170000000     0          
Si       Si     0.222196666667     0.241983333333     0.355620000000     0          
Si       Si     0.111043333333     0.091183333333     0.644030000000     0          
O        O      0.090273333333     0.075723333333     0.430780000000     0          
O        O      0.243296666667     0.257723333333     0.568720000000     0          
O        O      0.126273333333     0.145873333333     0.069200000000     0          
O        O      0.207673333333     0.186836666667     0.930850000000     0          
O        O      0.017806666667     0.111196666667     0.387540000000     0          
O        O      0.315210000000     0.222680000000     0.612090000000     0          
O        O      0.257193333333     0.242123333333     0.344490000000     0          
O        O      0.187306666667     0.207096666667     0.344400000000     0          
O        O      0.076073333333     0.091086666667     0.655160000000     0          
O        O      0.145890000000     0.126420000000     0.654870000000     0          
O        O      0.282866666667     0.111136666667     0.285650000000     0          
O        O      0.050433333333     0.161593333333     0.713800000000     0          
Si       Si     0.241970000000     0.019766666667     0.919450000000     0          
Si       Si     0.091143333333     0.313513333333     0.080170000000     0          
Si       Si     0.313546666667     0.222196666667     0.855620000000     0          
Si       Si     0.019860000000     0.111043333333     0.144030000000     0          
O        O      0.014550000000     0.090273333333     0.930780000000     0          
O        O      0.318906666667     0.243296666667     0.068720000000     0          
O        O      0.313733333333     0.126273333333     0.569200000000     0          
O        O      0.020836666667     0.207673333333     0.430850000000     0          
O        O      0.239943333333     0.017806666667     0.887540000000     0          
O        O      0.092530000000     0.315210000000     0.112090000000     0          
O        O      0.015070000000     0.257193333333     0.844490000000     0          
O        O      0.313543333333     0.187306666667     0.844400000000     0          
O        O      0.318320000000     0.076073333333     0.155160000000     0          
O        O      0.019470000000     0.145890000000     0.154870000000     0          
O        O      0.171730000000     0.282866666667     0.785650000000     0          
O        O      0.222173333333     0.050433333333     0.213800000000     0          
Si       Si     0.241970000000     0.555536666667     0.919450000000     0          
Si       Si     0.091143333333     0.444296666667     0.080170000000     0          
Si       Si     0.313546666667     0.424683333333     0.855620000000     0          
Si       Si     0.019860000000     0.575483333333     0.144030000000     0          
Si       Si     0.032840000000     0.633826666667     0.931180000000     0          
Si       Si     0.300593333333     0.366073333333     0.068340000000     0          
Si       Si     0.289213333333     0.477940000000     0.568100000000     0          
Si       Si     0.045433333333     0.522716666667     0.431240000000     0          
Si       Si     0.041150000000     0.625516666667     0.827460000000     0          
Si       Si     0.292210000000     0.374456666667     0.172200000000     0          
Si       Si     0.181053333333     0.485613333333     0.827390000000     0          
Si       Si     0.152336666667     0.514330000000     0.171850000000     0          
Si       Si     0.153303333333     0.513363333333     0.779980000000     0          
Si       Si     0.179973333333     0.486693333333     0.219340000000     0          
Si       Si     0.264386666667     0.402280000000     0.280080000000     0          
Si       Si     0.068986666667     0.597680000000     0.719490000000     0          
Si       Si     0.111110000000     0.555556666667     0.467790000000     0          
Si       Si     0.111110000000     0.555556666667     0.103910000000     0          
Si       Si     0.222223333333     0.444443333333     0.894750000000     0          
Si       Si     0.222223333333     0.444443333333     0.830890000000     0          
Si       Si     0.111110000000     0.555556666667     0.167770000000     0          
Si       Si     0.000000000000     0.333333333333     0.967750000000     0          
Si       Si     0.000000000000     0.333333333333     0.031620000000     0          
Si       Si     0.000000000000     0.333333333333     0.894700000000     0          
Si       Si     0.000000000000     0.333333333333     0.104980000000     0          
Si       Si     0.000000000000     0.333333333333     0.830840000000     0          
Si       Si     0.000000000000     0.333333333333     0.168840000000     0          
O        O      0.292726666667     0.646363333333     0.957170000000     0          
O        O      0.000000000000     0.333333333333     0.999690000000     0          
O        O      0.040566666667     0.353616666667     0.042270000000     0          
O        O      0.201913333333     0.403826666667     0.957230000000     0          
O        O      0.111110000000     0.555556666667     0.499760000000     0          
O        O      0.133026666667     0.599386666667     0.041160000000     0          
O        O      0.014550000000     0.590943333333     0.930780000000     0          
O        O      0.020320000000     0.646346666667     0.905170000000     0          
O        O      0.318906666667     0.408943333333     0.068720000000     0          
O        O      0.313033333333     0.353633333333     0.094430000000     0          
O        O      0.313733333333     0.520793333333     0.569200000000     0          
O        O      0.262806666667     0.464736666667     0.593340000000     0          
O        O      0.020836666667     0.479830000000     0.430850000000     0          
O        O      0.070473333333     0.535236666667     0.405230000000     0          
O        O      0.277776666667     0.555553333333     0.928340000000     0          
O        O      0.239943333333     0.555470000000     0.887540000000     0          
O        O      0.055903333333     0.445140000000     0.070900000000     0          
O        O      0.092530000000     0.443986666667     0.112090000000     0          
O        O      0.000000000000     0.333333333333     0.862770000000     0          
O        O      0.000000000000     0.333333333333     0.136910000000     0          
O        O      0.222223333333     0.444443333333     0.862820000000     0          
O        O      0.111110000000     0.555556666667     0.135850000000     0          
O        O      0.292880000000     0.646440000000     0.820040000000     0          
O        O      0.040426666667     0.353546666667     0.179690000000     0          
O        O      0.201996666667     0.403993333333     0.820090000000     0          
O        O      0.131320000000     0.595973333333     0.178660000000     0          
O        O      0.277746666667     0.388920000000     0.846680000000     0          
O        O      0.015070000000     0.424543333333     0.844490000000     0          
O        O      0.313543333333     0.459570000000     0.844400000000     0          
O        O      0.055693333333     0.610973333333     0.153320000000     0          
O        O      0.318320000000     0.575580000000     0.155160000000     0          
O        O      0.019470000000     0.540246666667     0.154870000000     0          
O        O      0.052160000000     0.614506666667     0.800020000000     0          
O        O      0.281160000000     0.385506666667     0.199600000000     0          
O        O      0.170100000000     0.496566666667     0.799900000000     0          
O        O      0.163140000000     0.503526666667     0.199480000000     0          
O        O      0.160153333333     0.506513333333     0.749670000000     0          
O        O      0.171730000000     0.555530000000     0.785650000000     0          
O        O      0.222173333333     0.505073333333     0.213800000000     0          
O        O      0.271233333333     0.395433333333     0.249770000000     0          
Si       Si     0.019766666667     0.575303333333     0.419450000000     0          
Si       Si     0.313513333333     0.424476666667     0.580170000000     0          
Si       Si     0.222196666667     0.646880000000     0.355620000000     0          
Si       Si     0.111043333333     0.353193333333     0.644030000000     0          
Si       Si     0.065680000000     0.366173333333     0.431180000000     0          
Si       Si     0.267853333333     0.633926666667     0.568340000000     0          
Si       Si     0.144606666667     0.622546666667     0.068100000000     0          
Si       Si     0.189383333333     0.378766666667     0.931240000000     0          
Si       Si     0.082300000000     0.374483333333     0.327460000000     0          
Si       Si     0.251086666667     0.625543333333     0.672200000000     0          
Si       Si     0.028773333333     0.514386666667     0.327390000000     0          
Si       Si     0.304673333333     0.485670000000     0.671850000000     0          
Si       Si     0.306606666667     0.486636666667     0.279980000000     0          
Si       Si     0.026613333333     0.513306666667     0.719340000000     0          
Si       Si     0.195440000000     0.597720000000     0.780080000000     0          
Si       Si     0.137973333333     0.402320000000     0.219490000000     0          
Si       Si     0.222220000000     0.444443333333     0.967790000000     0          
Si       Si     0.222220000000     0.444443333333     0.603910000000     0          
Si       Si     0.111113333333     0.555556666667     0.394750000000     0          
Si       Si     0.111113333333     0.555556666667     0.330890000000     0          
Si       Si     0.222220000000     0.444443333333     0.667770000000     0          
Si       Si     0.000000000000     0.333333333333     0.467750000000     0          
Si       Si     0.000000000000     0.333333333333     0.531620000000     0          
Si       Si     0.000000000000     0.333333333333     0.394700000000     0          
Si       Si     0.000000000000     0.333333333333     0.604980000000     0          
Si       Si     0.000000000000     0.333333333333     0.330840000000     0          
Si       Si     0.000000000000     0.333333333333     0.668840000000     0          
O        O      0.313030000000     0.626060000000     0.457170000000     0          
O        O      0.000000000000     0.333333333333     0.499690000000     0          
O        O      0.020283333333     0.373900000000     0.542270000000     0          
O        O      0.131420000000     0.535246666667     0.457230000000     0          
O        O      0.222220000000     0.444443333333     0.999760000000     0          
O        O      0.200306666667     0.466360000000     0.541160000000     0          
O        O      0.090273333333     0.347883333333     0.430780000000     0          
O        O      0.040640000000     0.353653333333     0.405170000000     0          
O        O      0.243296666667     0.652240000000     0.568720000000     0          
O        O      0.292733333333     0.646366666667     0.594430000000     0          
O        O      0.126273333333     0.647066666667     0.069200000000     0          
O        O      0.131403333333     0.596140000000     0.093340000000     0          
O        O      0.207673333333     0.354170000000     0.930850000000     0          
O        O      0.201903333333     0.403806666667     0.905230000000     0          
O        O      0.055556666667     0.611110000000     0.428340000000     0          
O        O      0.017806666667     0.573276666667     0.387540000000     0          
O        O      0.277430000000     0.389236666667     0.570900000000     0          
O        O      0.315210000000     0.425863333333     0.612090000000     0          
O        O      0.000000000000     0.333333333333     0.362770000000     0          
O        O      0.000000000000     0.333333333333     0.636910000000     0          
O        O      0.111113333333     0.555556666667     0.362820000000     0          
O        O      0.222220000000     0.444443333333     0.635850000000     0          
O        O      0.313106666667     0.626213333333     0.320040000000     0          
O        O      0.020213333333     0.373760000000     0.679690000000     0          
O        O      0.131336666667     0.535330000000     0.320090000000     0          
O        O      0.202013333333     0.464653333333     0.678660000000     0          
O        O      0.222160000000     0.611080000000     0.346680000000     0          
O        O      0.257193333333     0.348403333333     0.344490000000     0          
O        O      0.187306666667     0.646876666667     0.344400000000     0          
O        O      0.111386666667     0.389026666667     0.653320000000     0          
O        O      0.076073333333     0.651653333333     0.655160000000     0          
O        O      0.145890000000     0.352803333333     0.654870000000     0          
O        O      0.104320000000     0.385493333333     0.300020000000     0          
O        O      0.228986666667     0.614493333333     0.699600000000     0          
O        O      0.006866666667     0.503433333333     0.299900000000     0          
O        O      0.326280000000     0.496473333333     0.699480000000     0          
O        O      0.320306666667     0.493486666667     0.249670000000     0          
O        O      0.282866666667     0.505063333333     0.285650000000     0          
O        O      0.050433333333     0.555506666667     0.713800000000     0          
O        O      0.209133333333     0.604566666667     0.749770000000     0          
Si       Si     0.111130000000     0.353100000000     0.919450000000     0          
Si       Si     0.222370000000     0.646846666667     0.080170000000     0          
Si       Si     0.241983333333     0.555530000000     0.855620000000     0          
Si       Si     0.091183333333     0.444376666667     0.144030000000     0          
Si       Si     0.032840000000     0.399013333333     0.931180000000     0          
Si       Si     0.300593333333     0.601186666667     0.068340000000     0          
Si       Si     0.188726666667     0.477940000000     0.568100000000     0          
Si       Si     0.143950000000     0.522716666667     0.431240000000     0          
Si       Si     0.041150000000     0.415633333333     0.827460000000     0          
Si       Si     0.292210000000     0.584420000000     0.172200000000     0          
Si       Si     0.181053333333     0.362106666667     0.827390000000     0          
Si       Si     0.152336666667     0.638006666667     0.171850000000     0          
Si       Si     0.153303333333     0.639940000000     0.779980000000     0          
Si       Si     0.179973333333     0.359946666667     0.219340000000     0          
Si       Si     0.264386666667     0.528773333333     0.280080000000     0          
Si       Si     0.068986666667     0.471306666667     0.719490000000     0          
O        O      0.020303333333     0.646363333333     0.957170000000     0          
O        O      0.313050000000     0.353616666667     0.042270000000     0          
O        O      0.262840000000     0.464753333333     0.957230000000     0          
O        O      0.067280000000     0.533640000000     0.041160000000     0          
O        O      0.075723333333     0.423606666667     0.930780000000     0          
O        O      0.020320000000     0.373973333333     0.905170000000     0          
O        O      0.257723333333     0.576630000000     0.068720000000     0          
O        O      0.313033333333     0.626066666667     0.094430000000     0          
O        O      0.145873333333     0.459606666667     0.569200000000     0          
O        O      0.201930000000     0.464736666667     0.593340000000     0          
O        O      0.186836666667     0.541006666667     0.430850000000     0          
O        O      0.131430000000     0.535236666667     0.405230000000     0          
O        O      0.111113333333     0.388890000000     0.928340000000     0          
O        O      0.111196666667     0.351140000000     0.887540000000     0          
O        O      0.221526666667     0.610763333333     0.070900000000     0          
O        O      0.222680000000     0.648543333333     0.112090000000     0          
O        O      0.020226666667     0.646440000000     0.820040000000     0          
O        O      0.313120000000     0.353546666667     0.179690000000     0          
O        O      0.262673333333     0.464670000000     0.820090000000     0          
O        O      0.070693333333     0.535346666667     0.178660000000     0          
O        O      0.277746666667     0.555493333333     0.846680000000     0          
O        O      0.242123333333     0.590526666667     0.844490000000     0          
O        O      0.207096666667     0.520640000000     0.844400000000     0          
O        O      0.055693333333     0.444720000000     0.153320000000     0          
O        O      0.091086666667     0.409406666667     0.155160000000     0          
O        O      0.126420000000     0.479223333333     0.154870000000     0          
O        O      0.052160000000     0.437653333333     0.800020000000     0          
O        O      0.281160000000     0.562320000000     0.199600000000     0          
O        O      0.170100000000     0.340200000000     0.799900000000     0          
O        O      0.163140000000     0.659613333333     0.199480000000     0          
O        O      0.160153333333     0.653640000000     0.749670000000     0          
O        O      0.111136666667     0.616200000000     0.785650000000     0          
O        O      0.161593333333     0.383766666667     0.213800000000     0          
O        O      0.271233333333     0.542466666667     0.249770000000     0          
Si       Si     0.091363333333     0.444463333333     0.419450000000     0          
Si       Si     0.242190000000     0.555703333333     0.580170000000     0          
Si       Si     0.019786666667     0.575316666667     0.355620000000     0          
Si       Si     0.313473333333     0.424516666667     0.644030000000     0          
Si       Si     0.300493333333     0.366173333333     0.431180000000     0          
Si       Si     0.032740000000     0.633926666667     0.568340000000     0          
Si       Si     0.044120000000     0.522060000000     0.068100000000     0          
Si       Si     0.287900000000     0.477283333333     0.931240000000     0          
Si       Si     0.292183333333     0.374483333333     0.327460000000     0          
Si       Si     0.041123333333     0.625543333333     0.672200000000     0          
Si       Si     0.152280000000     0.514386666667     0.327390000000     0          
Si       Si     0.180996666667     0.485670000000     0.671850000000     0          
Si       Si     0.180030000000     0.486636666667     0.279980000000     0          
Si       Si     0.153360000000     0.513306666667     0.719340000000     0          
Si       Si     0.068946666667     0.597720000000     0.780080000000     0          
Si       Si     0.264346666667     0.402320000000     0.219490000000     0          
O        O      0.040606666667     0.353636666667     0.457170000000     0          
O        O      0.292766666667     0.646383333333     0.542270000000     0          
O        O      0.131420000000     0.596173333333     0.457230000000     0          
O        O      0.200306666667     0.400613333333     0.541160000000     0          
O        O      0.318783333333     0.409056666667     0.430780000000     0          
O        O      0.313013333333     0.353653333333     0.405170000000     0          
O        O      0.014426666667     0.591056666667     0.568720000000     0          
O        O      0.020300000000     0.646366666667     0.594430000000     0          
O        O      0.019600000000     0.479206666667     0.069200000000     0          
O        O      0.070526666667     0.535263333333     0.093340000000     0          
O        O      0.312496666667     0.520170000000     0.930850000000     0          
O        O      0.262860000000     0.464763333333     0.905230000000     0          
O        O      0.055556666667     0.444446666667     0.428340000000     0          
O        O      0.093390000000     0.444530000000     0.387540000000     0          
O        O      0.277430000000     0.554860000000     0.570900000000     0          
O        O      0.240803333333     0.556013333333     0.612090000000     0          
O        O      0.040453333333     0.353560000000     0.320040000000     0          
O        O      0.292906666667     0.646453333333     0.679690000000     0          
O        O      0.131336666667     0.596006666667     0.320090000000     0          
O        O      0.202013333333     0.404026666667     0.678660000000     0          
O        O      0.055586666667     0.611080000000     0.346680000000     0          
O        O      0.318263333333     0.575456666667     0.344490000000     0          
O        O      0.019790000000     0.540430000000     0.344400000000     0          
O        O      0.277640000000     0.389026666667     0.653320000000     0          
O        O      0.015013333333     0.424420000000     0.655160000000     0          
O        O      0.313863333333     0.459753333333     0.654870000000     0          
O        O      0.281173333333     0.385493333333     0.300020000000     0          
O        O      0.052173333333     0.614493333333     0.699600000000     0          
O        O      0.163233333333     0.503433333333     0.299900000000     0          
O        O      0.170193333333     0.496473333333     0.699480000000     0          
O        O      0.173180000000     0.493486666667     0.249670000000     0          
O        O      0.161603333333     0.444470000000     0.285650000000     0          
O        O      0.111160000000     0.494926666667     0.713800000000     0          
O        O      0.062100000000     0.604566666667     0.749770000000     0          
Si       Si     0.313566666667     0.424696666667     0.919450000000     0          
Si       Si     0.019820000000     0.575523333333     0.080170000000     0          
Si       Si     0.111136666667     0.353120000000     0.855620000000     0          
Si       Si     0.222290000000     0.646806666667     0.144030000000     0          
Si       Si     0.267653333333     0.633826666667     0.931180000000     0          
Si       Si     0.065480000000     0.366073333333     0.068340000000     0          
Si       Si     0.188726666667     0.377453333333     0.568100000000     0          
Si       Si     0.143950000000     0.621233333333     0.431240000000     0          
Si       Si     0.251033333333     0.625516666667     0.827460000000     0          
Si       Si     0.082246666667     0.374456666667     0.172200000000     0          
Si       Si     0.304560000000     0.485613333333     0.827390000000     0          
Si       Si     0.028660000000     0.514330000000     0.171850000000     0          
Si       Si     0.026726666667     0.513363333333     0.779980000000     0          
Si       Si     0.306720000000     0.486693333333     0.219340000000     0          
Si       Si     0.137893333333     0.402280000000     0.280080000000     0          
Si       Si     0.195360000000     0.597680000000     0.719490000000     0          
O        O      0.020303333333     0.373940000000     0.957170000000     0          
O        O      0.313050000000     0.626100000000     0.042270000000     0          
O        O      0.201913333333     0.464753333333     0.957230000000     0          
O        O      0.133026666667     0.533640000000     0.041160000000     0          
O        O      0.243060000000     0.652116666667     0.930780000000     0          
O        O      0.292693333333     0.646346666667     0.905170000000     0          
O        O      0.090036666667     0.347760000000     0.068720000000     0          
O        O      0.040600000000     0.353633333333     0.094430000000     0          
O        O      0.207060000000     0.352933333333     0.569200000000     0          
O        O      0.201930000000     0.403860000000     0.593340000000     0          
O        O      0.125660000000     0.645830000000     0.430850000000     0          
O        O      0.131430000000     0.596193333333     0.405230000000     0          
O        O      0.277776666667     0.388890000000     0.928340000000     0          
O        O      0.315526666667     0.426723333333     0.887540000000     0          
O        O      0.055903333333     0.610763333333     0.070900000000     0          
O        O      0.018123333333     0.574136666667     0.112090000000     0          
O        O      0.020226666667     0.373786666667     0.820040000000     0          
O        O      0.313120000000     0.626240000000     0.179690000000     0          
O        O      0.201996666667     0.464670000000     0.820090000000     0          
O        O      0.131320000000     0.535346666667     0.178660000000     0          
O        O      0.111173333333     0.388920000000     0.846680000000     0          
O        O      0.076140000000     0.651596666667     0.844490000000     0          
O        O      0.146026666667     0.353123333333     0.844400000000     0          
O        O      0.221946666667     0.610973333333     0.153320000000     0          
O        O      0.257260000000     0.348346666667     0.155160000000     0          
O        O      0.187443333333     0.647196666667     0.154870000000     0          
O        O      0.229013333333     0.614506666667     0.800020000000     0          
O        O      0.104346666667     0.385506666667     0.199600000000     0          
O        O      0.326466666667     0.496566666667     0.799900000000     0          
O        O      0.007053333333     0.503526666667     0.199480000000     0          
O        O      0.013026666667     0.506513333333     0.749670000000     0          
O        O      0.050466666667     0.494936666667     0.785650000000     0          
O        O      0.282900000000     0.444493333333     0.213800000000     0          
O        O      0.124200000000     0.395433333333     0.249770000000     0          
Si       Si     0.222203333333     0.646900000000     0.419450000000     0          
Si       Si     0.110963333333     0.353153333333     0.580170000000     0          
Si       Si     0.091350000000     0.444470000000     0.355620000000     0          
Si       Si     0.242150000000     0.555623333333     0.644030000000     0          
Si       Si     0.300493333333     0.600986666667     0.431180000000     0          
Si       Si     0.032740000000     0.398813333333     0.568340000000     0          
Si       Si     0.144606666667     0.522060000000     0.068100000000     0          
Si       Si     0.189383333333     0.477283333333     0.931240000000     0          
Si       Si     0.292183333333     0.584366666667     0.327460000000     0          
Si       Si     0.041123333333     0.415580000000     0.672200000000     0          
Si       Si     0.152280000000     0.637893333333     0.327390000000     0          
Si       Si     0.180996666667     0.361993333333     0.671850000000     0          
Si       Si     0.180030000000     0.360060000000     0.279980000000     0          
Si       Si     0.153360000000     0.640053333333     0.719340000000     0          
Si       Si     0.068946666667     0.471226666667     0.780080000000     0          
Si       Si     0.264346666667     0.528693333333     0.219490000000     0          
O        O      0.313030000000     0.353636666667     0.457170000000     0          
O        O      0.020283333333     0.646383333333     0.542270000000     0          
O        O      0.070493333333     0.535246666667     0.457230000000     0          
O        O      0.266053333333     0.466360000000     0.541160000000     0          
O        O      0.257610000000     0.576393333333     0.430780000000     0          
O        O      0.313013333333     0.626026666667     0.405170000000     0          
O        O      0.075610000000     0.423370000000     0.568720000000     0          
O        O      0.020300000000     0.373933333333     0.594430000000     0          
O        O      0.187460000000     0.540393333333     0.069200000000     0          
O        O      0.131403333333     0.535263333333     0.093340000000     0          
O        O      0.146496666667     0.458993333333     0.930850000000     0          
O        O      0.201903333333     0.464763333333     0.905230000000     0          
O        O      0.222220000000     0.611110000000     0.428340000000     0          
O        O      0.222136666667     0.648860000000     0.387540000000     0          
O        O      0.111806666667     0.389236666667     0.570900000000     0          
O        O      0.110653333333     0.351456666667     0.612090000000     0          
O        O      0.313106666667     0.353560000000     0.320040000000     0          
O        O      0.020213333333     0.646453333333     0.679690000000     0          
O        O      0.070660000000     0.535330000000     0.320090000000     0          
O        O      0.262640000000     0.464653333333     0.678660000000     0          
O        O      0.055586666667     0.444506666667     0.346680000000     0          
O        O      0.091210000000     0.409473333333     0.344490000000     0          
O        O      0.126236666667     0.479360000000     0.344400000000     0          
O        O      0.277640000000     0.555280000000     0.653320000000     0          
O        O      0.242246666667     0.590593333333     0.655160000000     0          
O        O      0.206913333333     0.520776666667     0.654870000000     0          
O        O      0.281173333333     0.562346666667     0.300020000000     0          
O        O      0.052173333333     0.437680000000     0.699600000000     0          
O        O      0.163233333333     0.659800000000     0.299900000000     0          
O        O      0.170193333333     0.340386666667     0.699480000000     0          
O        O      0.173180000000     0.346360000000     0.249670000000     0          
O        O      0.222196666667     0.383800000000     0.285650000000     0          
O        O      0.171740000000     0.616233333333     0.713800000000     0          
O        O      0.062100000000     0.457533333333     0.749770000000     0          
Si       Si     0.222203333333     0.575303333333     0.419450000000     0          
Si       Si     0.110963333333     0.424476666667     0.580170000000     0          
Si       Si     0.091350000000     0.646880000000     0.355620000000     0          
Si       Si     0.242150000000     0.353193333333     0.644030000000     0          
O        O      0.257610000000     0.347883333333     0.430780000000     0          
O        O      0.075610000000     0.652240000000     0.568720000000     0          
O        O      0.187460000000     0.647066666667     0.069200000000     0          
O        O      0.146496666667     0.354170000000     0.930850000000     0          
O        O      0.222136666667     0.573276666667     0.387540000000     0          
O        O      0.110653333333     0.425863333333     0.612090000000     0          
O        O      0.091210000000     0.348403333333     0.344490000000     0          
O        O      0.126236666667     0.646876666667     0.344400000000     0          
O        O      0.242246666667     0.651653333333     0.655160000000     0          
O        O      0.206913333333     0.352803333333     0.654870000000     0          
O        O      0.222196666667     0.505063333333     0.285650000000     0          
O        O      0.171740000000     0.555506666667     0.713800000000     0          
Si       Si     0.313566666667     0.555536666667     0.919450000000     0          
Si       Si     0.019820000000     0.444296666667     0.080170000000     0          
Si       Si     0.111136666667     0.424683333333     0.855620000000     0          
Si       Si     0.222290000000     0.575483333333     0.144030000000     0          
O        O      0.243060000000     0.590943333333     0.930780000000     0          
O        O      0.090036666667     0.408943333333     0.068720000000     0          
O        O      0.207060000000     0.520793333333     0.569200000000     0          
O        O      0.125660000000     0.479830000000     0.430850000000     0          
O        O      0.315526666667     0.555470000000     0.887540000000     0          
O        O      0.018123333333     0.443986666667     0.112090000000     0          
O        O      0.076140000000     0.424543333333     0.844490000000     0          
O        O      0.146026666667     0.459570000000     0.844400000000     0          
O        O      0.257260000000     0.575580000000     0.155160000000     0          
O        O      0.187443333333     0.540246666667     0.154870000000     0          
O        O      0.050466666667     0.555530000000     0.785650000000     0          
O        O      0.282900000000     0.505073333333     0.213800000000     0          
Si       Si     0.091363333333     0.646900000000     0.419450000000     0          
Si       Si     0.242190000000     0.353153333333     0.580170000000     0          
Si       Si     0.019786666667     0.444470000000     0.355620000000     0          
Si       Si     0.313473333333     0.555623333333     0.644030000000     0          
O        O      0.318783333333     0.576393333333     0.430780000000     0          
O        O      0.014426666667     0.423370000000     0.568720000000     0          
O        O      0.019600000000     0.540393333333     0.069200000000     0          
O        O      0.312496666667     0.458993333333     0.930850000000     0          
O        O      0.093390000000     0.648860000000     0.387540000000     0          
O        O      0.240803333333     0.351456666667     0.612090000000     0          
O        O      0.318263333333     0.409473333333     0.344490000000     0          
O        O      0.019790000000     0.479360000000     0.344400000000     0          
O        O      0.015013333333     0.590593333333     0.655160000000     0          
O        O      0.313863333333     0.520776666667     0.654870000000     0          
O        O      0.161603333333     0.383800000000     0.285650000000     0          
O        O      0.111160000000     0.616233333333     0.713800000000     0          
Si       Si     0.111130000000     0.424696666667     0.919450000000     0          
Si       Si     0.222370000000     0.575523333333     0.080170000000     0          
Si       Si     0.241983333333     0.353120000000     0.855620000000     0          
Si       Si     0.091183333333     0.646806666667     0.144030000000     0          
O        O      0.075723333333     0.652116666667     0.930780000000     0          
O        O      0.257723333333     0.347760000000     0.068720000000     0          
O        O      0.145873333333     0.352933333333     0.569200000000     0          
O        O      0.186836666667     0.645830000000     0.430850000000     0          
O        O      0.111196666667     0.426723333333     0.887540000000     0          
O        O      0.222680000000     0.574136666667     0.112090000000     0          
O        O      0.242123333333     0.651596666667     0.844490000000     0          
O        O      0.207096666667     0.353123333333     0.844400000000     0          
O        O      0.091086666667     0.348346666667     0.155160000000     0          
O        O      0.126420000000     0.647196666667     0.154870000000     0          
O        O      0.111136666667     0.494936666667     0.785650000000     0          
O        O      0.161593333333     0.444493333333     0.213800000000     0          
Si       Si     0.019766666667     0.444463333333     0.419450000000     0          
Si       Si     0.313513333333     0.555703333333     0.580170000000     0          
Si       Si     0.222196666667     0.575316666667     0.355620000000     0          
Si       Si     0.111043333333     0.424516666667     0.644030000000     0          
O        O      0.090273333333     0.409056666667     0.430780000000     0          
O        O      0.243296666667     0.591056666667     0.568720000000     0          
O        O      0.126273333333     0.479206666667     0.069200000000     0          
O        O      0.207673333333     0.520170000000     0.930850000000     0          
O        O      0.017806666667     0.444530000000     0.387540000000     0          
O        O      0.315210000000     0.556013333333     0.612090000000     0          
O        O      0.257193333333     0.575456666667     0.344490000000     0          
O        O      0.187306666667     0.540430000000     0.344400000000     0          
O        O      0.076073333333     0.424420000000     0.655160000000     0          
O        O      0.145890000000     0.459753333333     0.654870000000     0          
O        O      0.282866666667     0.444470000000     0.285650000000     0          
O        O      0.050433333333     0.494926666667     0.713800000000     0          
Si       Si     0.241970000000     0.353100000000     0.919450000000     0          
Si       Si     0.091143333333     0.646846666667     0.080170000000     0          
Si       Si     0.313546666667     0.555530000000     0.855620000000     0          
Si       Si     0.019860000000     0.444376666667     0.144030000000     0          
O        O      0.014550000000     0.423606666667     0.930780000000     0          
O        O      0.318906666667     0.576630000000     0.068720000000     0          
O        O      0.313733333333     0.459606666667     0.569200000000     0          
O        O      0.020836666667     0.541006666667     0.430850000000     0          
O        O      0.239943333333     0.351140000000     0.887540000000     0          
O        O      0.092530000000     0.648543333333     0.112090000000     0          
O        O      0.015070000000     0.590526666667     0.844490000000     0          
O        O      0.313543333333     0.520640000000     0.844400000000     0          
O        O      0.318320000000     0.409406666667     0.155160000000     0          
O        O      0.019470000000     0.479223333333     0.154870000000     0          
O        O      0.171730000000     0.616200000000     0.785650000000     0          
O        O      0.222173333333     0.383766666667     0.213800000000     0          
Si       Si     0.241970000000     0.888870000000     0.919450000000     0          
Si       Si     0.091143333333     0.777630000000     0.080170000000     0          
Si       Si     0.313546666667     0.758016666667     0.855620000000     0          
Si       Si     0.019860000000     0.908816666667     0.144030000000     0          
Si       Si     0.032840000000     0.967160000000     0.931180000000     0          
Si       Si     0.300593333333     0.699406666667     0.068340000000     0          
Si       Si     0.289213333333     0.811273333333     0.568100000000     0          
Si       Si     0.045433333333     0.856050000000     0.431240000000     0          
Si       Si     0.041150000000     0.958850000000     0.827460000000     0          
Si       Si     0.292210000000     0.707790000000     0.172200000000     0          
Si       Si     0.181053333333     0.818946666667     0.827390000000     0          
Si       Si     0.152336666667     0.847663333333     0.171850000000     0          
Si       Si     0.153303333333     0.846696666667     0.779980000000     0          
Si       Si     0.179973333333     0.820026666667     0.219340000000     0          
Si       Si     0.264386666667     0.735613333333     0.280080000000     0          
Si       Si     0.068986666667     0.931013333333     0.719490000000     0          
Si       Si     0.111110000000     0.888890000000     0.467790000000     0          
Si       Si     0.111110000000     0.888890000000     0.103910000000     0          
Si       Si     0.222223333333     0.777776666667     0.894750000000     0          
Si       Si     0.222223333333     0.777776666667     0.830890000000     0          
Si       Si     0.111110000000     0.888890000000     0.167770000000     0          
Si       Si     0.000000000000     0.666666666667     0.967750000000     0          
Si       Si     0.000000000000     0.666666666667     0.031620000000     0          
Si       Si     0.000000000000     0.666666666667     0.894700000000     0          
Si       Si     0.000000000000     0.666666666667     0.104980000000     0          
Si       Si     0.000000000000     0.666666666667     0.830840000000     0          
Si       Si     0.000000000000     0.666666666667     0.168840000000     0          
O        O      0.292726666667     0.979696666667     0.957170000000     0          
O        O      0.000000000000     0.666666666667     0.999690000000     0          
O        O      0.040566666667     0.686950000000     0.042270000000     0          
O        O      0.201913333333     0.737160000000     0.957230000000     0          
O        O      0.111110000000     0.888890000000     0.499760000000     0          
O        O      0.133026666667     0.932720000000     0.041160000000     0          
O        O      0.014550000000     0.924276666667     0.930780000000     0          
O        O      0.020320000000     0.979680000000     0.905170000000     0          
O        O      0.318906666667     0.742276666667     0.068720000000     0          
O        O      0.313033333333     0.686966666667     0.094430000000     0          
O        O      0.313733333333     0.854126666667     0.569200000000     0          
O        O      0.262806666667     0.798070000000     0.593340000000     0          
O        O      0.020836666667     0.813163333333     0.430850000000     0          
O        O      0.070473333333     0.868570000000     0.405230000000     0          
O        O      0.277776666667     0.888886666667     0.928340000000     0          
O        O      0.239943333333     0.888803333333     0.887540000000     0          
O        O      0.055903333333     0.778473333333     0.070900000000     0          
O        O      0.092530000000     0.777320000000     0.112090000000     0          
O        O      0.000000000000     0.666666666667     0.862770000000     0          
O        O      0.000000000000     0.666666666667     0.136910000000     0          
O        O      0.222223333333     0.777776666667     0.862820000000     0          
O        O      0.111110000000     0.888890000000     0.135850000000     0          
O        O      0.292880000000     0.979773333333     0.820040000000     0          
O        O      0.040426666667     0.686880000000     0.179690000000     0          
O        O      0.201996666667     0.737326666667     0.820090000000     0          
O        O      0.131320000000     0.929306666667     0.178660000000     0          
O        O      0.277746666667     0.722253333333     0.846680000000     0          
O        O      0.015070000000     0.757876666667     0.844490000000     0          
O        O      0.313543333333     0.792903333333     0.844400000000     0          
O        O      0.055693333333     0.944306666667     0.153320000000     0          
O        O      0.318320000000     0.908913333333     0.155160000000     0          
O        O      0.019470000000     0.873580000000     0.154870000000     0          
O        O      0.052160000000     0.947840000000     0.800020000000     0          
O        O      0.281160000000     0.718840000000     0.199600000000     0          
O        O      0.170100000000     0.829900000000     0.799900000000     0          
O        O      0.163140000000     0.836860000000     0.199480000000     0          
O        O      0.160153333333     0.839846666667     0.749670000000     0          
O        O      0.171730000000     0.888863333333     0.785650000000     0          
O        O      0.222173333333     0.838406666667     0.213800000000     0          
O        O      0.271233333333     0.728766666667     0.249770000000     0          
Si       Si     0.019766666667     0.908636666667     0.419450000000     0          
Si       Si     0.313513333333     0.757810000000     0.580170000000     0          
Si       Si     0.222196666667     0.980213333333     0.355620000000     0          
Si       Si     0.111043333333     0.686526666667     0.644030000000     0          
Si       Si     0.065680000000     0.699506666667     0.431180000000     0          
Si       Si     0.267853333333     0.967260000000     0.568340000000     0          
Si       Si     0.144606666667     0.955880000000     0.068100000000     0          
Si       Si     0.189383333333     0.712100000000     0.931240000000     0          
Si       Si     0.082300000000     0.707816666667     0.327460000000     0          
Si       Si     0.251086666667     0.958876666667     0.672200000000     0          
Si       Si     0.028773333333     0.847720000000     0.327390000000     0          
Si       Si     0.304673333333     0.819003333333     0.671850000000     0          
Si       Si     0.306606666667     0.819970000000     0.279980000000     0          
Si       Si     0.026613333333     0.846640000000     0.719340000000     0          
Si       Si     0.195440000000     0.931053333333     0.780080000000     0          
Si       Si     0.137973333333     0.735653333333     0.219490000000     0          
Si       Si     0.222220000000     0.777776666667     0.967790000000     0          
Si       Si     0.222220000000     0.777776666667     0.603910000000     0          
Si       Si     0.111113333333     0.888890000000     0.394750000000     0          
Si       Si     0.111113333333     0.888890000000     0.330890000000     0          
Si       Si     0.222220000000     0.777776666667     0.667770000000     0          
Si       Si     0.000000000000     0.666666666667     0.467750000000     0          
Si       Si     0.000000000000     0.666666666667     0.531620000000     0          
Si       Si     0.000000000000     0.666666666667     0.394700000000     0          
Si       Si     0.000000000000     0.666666666667     0.604980000000     0          
Si       Si     0.000000000000     0.666666666667     0.330840000000     0          
Si       Si     0.000000000000     0.666666666667     0.668840000000     0          
O        O      0.313030000000     0.959393333333     0.457170000000     0          
O        O      0.000000000000     0.666666666667     0.499690000000     0          
O        O      0.020283333333     0.707233333333     0.542270000000     0          
O        O      0.131420000000     0.868580000000     0.457230000000     0          
O        O      0.222220000000     0.777776666667     0.999760000000     0          
O        O      0.200306666667     0.799693333333     0.541160000000     0          
O        O      0.090273333333     0.681216666667     0.430780000000     0          
O        O      0.040640000000     0.686986666667     0.405170000000     0          
O        O      0.243296666667     0.985573333333     0.568720000000     0          
O        O      0.292733333333     0.979700000000     0.594430000000     0          
O        O      0.126273333333     0.980400000000     0.069200000000     0          
O        O      0.131403333333     0.929473333333     0.093340000000     0          
O        O      0.207673333333     0.687503333333     0.930850000000     0          
O        O      0.201903333333     0.737140000000     0.905230000000     0          
O        O      0.055556666667     0.944443333333     0.428340000000     0          
O        O      0.017806666667     0.906610000000     0.387540000000     0          
O        O      0.277430000000     0.722570000000     0.570900000000     0          
O        O      0.315210000000     0.759196666667     0.612090000000     0          
O        O      0.000000000000     0.666666666667     0.362770000000     0          
O        O      0.000000000000     0.666666666667     0.636910000000     0          
O        O      0.111113333333     0.888890000000     0.362820000000     0          
O        O      0.222220000000     0.777776666667     0.635850000000     0          
O        O      0.313106666667     0.959546666667     0.320040000000     0          
O        O      0.020213333333     0.707093333333     0.679690000000     0          
O        O      0.131336666667     0.868663333333     0.320090000000     0          
O        O      0.202013333333     0.797986666667     0.678660000000     0          
O        O      0.222160000000     0.944413333333     0.346680000000     0          
O        O      0.257193333333     0.681736666667     0.344490000000     0          
O        O      0.187306666667     0.980210000000     0.344400000000     0          
O        O      0.111386666667     0.722360000000     0.653320000000     0          
O        O      0.076073333333     0.984986666667     0.655160000000     0          
O        O      0.145890000000     0.686136666667     0.654870000000     0          
O        O      0.104320000000     0.718826666667     0.300020000000     0          
O        O      0.228986666667     0.947826666667     0.699600000000     0          
O        O      0.006866666667     0.836766666667     0.299900000000     0          
O        O      0.326280000000     0.829806666667     0.699480000000     0          
O        O      0.320306666667     0.826820000000     0.249670000000     0          
O        O      0.282866666667     0.838396666667     0.285650000000     0          
O        O      0.050433333333     0.888840000000     0.713800000000     0          
O        O      0.209133333333     0.937900000000     0.749770000000     0          
Si       Si     0.111130000000     0.686433333333     0.919450000000     0          
Si       Si     0.222370000000     0.980180000000     0.080170000000     0          
Si       Si     0.241983333333     0.888863333333     0.855620000000     0          
Si       Si     0.091183333333     0.777710000000     0.144030000000     0          
Si       Si     0.032840000000     0.732346666667     0.931180000000     0          
Si       Si     0.300593333333     0.934520000000     0.068340000000     0          
Si       Si     0.188726666667     0.811273333333     0.568100000000     0          
Si       Si     0.143950000000     0.856050000000     0.431240000000     0          
Si       Si     0.041150000000     0.748966666667     0.827460000000     0          
Si       Si     0.292210000000     0.917753333333     0.172200000000     0          
Si       Si     0.181053333333     0.695440000000     0.827390000000     0          
Si       Si     0.152336666667     0.971340000000     0.171850000000     0          
Si       Si     0.153303333333     0.973273333333     0.779980000000     0          
Si       Si     0.179973333333     0.693280000000     0.219340000000     0          
Si       Si     0.264386666667     0.862106666667     0.280080000000     0          
Si       Si     0.068986666667     0.804640000000     0.719490000000     0          
O        O      0.020303333333     0.979696666667     0.957170000000     0          
O        O      0.313050000000     0.686950000000     0.042270000000     0          
O        O      0.262840000000     0.798086666667     0.957230000000     0          
O        O      0.067280000000     0.866973333333     0.041160000000     0          
O        O      0.075723333333     0.756940000000     0.930780000000     0          
O        O      0.020320000000     0.707306666667     0.905170000000     0          
O        O      0.257723333333     0.909963333333     0.068720000000     0          
O        O      0.313033333333     0.959400000000     0.094430000000     0          
O        O      0.145873333333     0.792940000000     0.569200000000     0          
O        O      0.201930000000     0.798070000000     0.593340000000     0          
O        O      0.186836666667     0.874340000000     0.430850000000     0          
O        O      0.131430000000     0.868570000000     0.405230000000     0          
O        O      0.111113333333     0.722223333333     0.928340000000     0          
O        O      0.111196666667     0.684473333333     0.887540000000     0          
O        O      0.221526666667     0.944096666667     0.070900000000     0          
O        O      0.222680000000     0.981876666667     0.112090000000     0          
O        O      0.020226666667     0.979773333333     0.820040000000     0          
O        O      0.313120000000     0.686880000000     0.179690000000     0          
O        O      0.262673333333     0.798003333333     0.820090000000     0          
O        O      0.070693333333     0.868680000000     0.178660000000     0          
O        O      0.277746666667     0.888826666667     0.846680000000     0          
O        O      0.242123333333     0.923860000000     0.844490000000     0          
O        O      0.207096666667     0.853973333333     0.844400000000     0          
O        O      0.055693333333     0.778053333333     0.153320000000     0          
O        O      0.091086666667     0.742740000000     0.155160000000     0          
O        O      0.126420000000     0.812556666667     0.154870000000     0          
O        O      0.052160000000     0.770986666667     0.800020000000     0          
O        O      0.281160000000     0.895653333333     0.199600000000     0          
O        O      0.170100000000     0.673533333333     0.799900000000     0          
O        O      0.163140000000     0.992946666667     0.199480000000     0          
O        O      0.160153333333     0.986973333333     0.749670000000     0          
O        O      0.111136666667     0.949533333333     0.785650000000     0          
O        O      0.161593333333     0.717100000000     0.213800000000     0          
O        O      0.271233333333     0.875800000000     0.249770000000     0          
Si       Si     0.091363333333     0.777796666667     0.419450000000     0          
Si       Si     0.242190000000     0.889036666667     0.580170000000     0          
Si       Si     0.019786666667     0.908650000000     0.355620000000     0          
Si       Si     0.313473333333     0.757850000000     0.644030000000     0          
Si       Si     0.300493333333     0.699506666667     0.431180000000     0          
Si       Si     0.032740000000     0.967260000000     0.568340000000     0          
Si       Si     0.044120000000     0.855393333333     0.068100000000     0          
Si       Si     0.287900000000     0.810616666667     0.931240000000     0          
Si       Si     0.292183333333     0.707816666667     0.327460000000     0          
Si       Si     0.041123333333     0.958876666667     0.672200000000     0          
Si       Si     0.152280000000     0.847720000000     0.327390000000     0          
Si       Si     0.180996666667     0.819003333333     0.671850000000     0          
Si       Si     0.180030000000     0.819970000000     0.279980000000     0          
Si       Si     0.153360000000     0.846640000000     0.719340000000     0          
Si       Si     0.068946666667     0.931053333333     0.780080000000     0          
Si       Si     0.264346666667     0.735653333333     0.219490000000     0          
O        O      0.040606666667     0.686970000000     0.457170000000     0          
O        O      0.292766666667     0.979716666667     0.542270000000     0          
O        O      0.131420000000     0.929506666667     0.457230000000     0          
O        O      0.200306666667     0.733946666667     0.541160000000     0          
O        O      0.318783333333     0.742390000000     0.430780000000     0          
O        O      0.313013333333     0.686986666667     0.405170000000     0          
O        O      0.014426666667     0.924390000000     0.568720000000     0          
O        O      0.020300000000     0.979700000000     0.594430000000     0          
O        O      0.019600000000     0.812540000000     0.069200000000     0          
O        O      0.070526666667     0.868596666667     0.093340000000     0          
O        O      0.312496666667     0.853503333333     0.930850000000     0          
O        O      0.262860000000     0.798096666667     0.905230000000     0          
O        O      0.055556666667     0.777780000000     0.428340000000     0          
O        O      0.093390000000     0.777863333333     0.387540000000     0          
O        O      0.277430000000     0.888193333333     0.570900000000     0          
O        O      0.240803333333     0.889346666667     0.612090000000     0          
O        O      0.040453333333     0.686893333333     0.320040000000     0          
O        O      0.292906666667     0.979786666667     0.679690000000     0          
O        O      0.131336666667     0.929340000000     0.320090000000     0          
O        O      0.202013333333     0.737360000000     0.678660000000     0          
O        O      0.055586666667     0.944413333333     0.346680000000     0          
O        O      0.318263333333     0.908790000000     0.344490000000     0          
O        O      0.019790000000     0.873763333333     0.344400000000     0          
O        O      0.277640000000     0.722360000000     0.653320000000     0          
O        O      0.015013333333     0.757753333333     0.655160000000     0          
O        O      0.313863333333     0.793086666667     0.654870000000     0          
O        O      0.281173333333     0.718826666667     0.300020000000     0          
O        O      0.052173333333     0.947826666667     0.699600000000     0          
O        O      0.163233333333     0.836766666667     0.299900000000     0          
O        O      0.170193333333     0.829806666667     0.699480000000     0          
O        O      0.173180000000     0.826820000000     0.249670000000     0          
O        O      0.161603333333     0.777803333333     0.285650000000     0          
O        O      0.111160000000     0.828260000000     0.713800000000     0          
O        O      0.062100000000     0.937900000000     0.749770000000     0          
Si       Si     0.313566666667     0.758030000000     0.919450000000     0          
Si       Si     0.019820000000     0.908856666667     0.080170000000     0          
Si       Si     0.111136666667     0.686453333333     0.855620000000     0          
Si       Si     0.222290000000     0.980140000000     0.144030000000     0          
Si       Si     0.267653333333     0.967160000000     0.931180000000     0          
Si       Si     0.065480000000     0.699406666667     0.068340000000     0          
Si       Si     0.188726666667     0.710786666667     0.568100000000     0          
Si       Si     0.143950000000     0.954566666667     0.431240000000     0          
Si       Si     0.251033333333     0.958850000000     0.827460000000     0          
Si       Si     0.082246666667     0.707790000000     0.172200000000     0          
Si       Si     0.304560000000     0.818946666667     0.827390000000     0          
Si       Si     0.028660000000     0.847663333333     0.171850000000     0          
Si       Si     0.026726666667     0.846696666667     0.779980000000     0          
Si       Si     0.306720000000     0.820026666667     0.219340000000     0          
Si       Si     0.137893333333     0.735613333333     0.280080000000     0          
Si       Si     0.195360000000     0.931013333333     0.719490000000     0          
O        O      0.020303333333     0.707273333333     0.957170000000     0          
O        O      0.313050000000     0.959433333333     0.042270000000     0          
O        O      0.201913333333     0.798086666667     0.957230000000     0          
O        O      0.133026666667     0.866973333333     0.041160000000     0          
O        O      0.243060000000     0.985450000000     0.930780000000     0          
O        O      0.292693333333     0.979680000000     0.905170000000     0          
O        O      0.090036666667     0.681093333333     0.068720000000     0          
O        O      0.040600000000     0.686966666667     0.094430000000     0          
O        O      0.207060000000     0.686266666667     0.569200000000     0          
O        O      0.201930000000     0.737193333333     0.593340000000     0          
O        O      0.125660000000     0.979163333333     0.430850000000     0          
O        O      0.131430000000     0.929526666667     0.405230000000     0          
O        O      0.277776666667     0.722223333333     0.928340000000     0          
O        O      0.315526666667     0.760056666667     0.887540000000     0          
O        O      0.055903333333     0.944096666667     0.070900000000     0          
O        O      0.018123333333     0.907470000000     0.112090000000     0          
O        O      0.020226666667     0.707120000000     0.820040000000     0          
O        O      0.313120000000     0.959573333333     0.179690000000     0          
O        O      0.201996666667     0.798003333333     0.820090000000     0          
O        O      0.131320000000     0.868680000000     0.178660000000     0          
O        O      0.111173333333     0.722253333333     0.846680000000     0          
O        O      0.076140000000     0.984930000000     0.844490000000     0          
O        O      0.146026666667     0.686456666667     0.844400000000     0          
O        O      0.221946666667     0.944306666667     0.153320000000     0          
O        O      0.257260000000     0.681680000000     0.155160000000     0          
O        O      0.187443333333     0.980530000000     0.154870000000     0          
O        O      0.229013333333     0.947840000000     0.800020000000     0          
O        O      0.104346666667     0.718840000000     0.199600000000     0          
O        O      0.326466666667     0.829900000000     0.799900000000     0          
O        O      0.007053333333     0.836860000000     0.199480000000     0          
O        O      0.013026666667     0.839846666667     0.749670000000     0          
O        O      0.050466666667     0.828270000000     0.785650000000     0          
O        O      0.282900000000     0.777826666667     0.213800000000     0          
O        O      0.124200000000     0.728766666667     0.249770000000     0          
Si       Si     0.222203333333     0.980233333333     0.419450000000     0          
Si       Si     0.110963333333     0.686486666667     0.580170000000     0          
Si       Si     0.091350000000     0.777803333333     0.355620000000     0          
Si       Si     0.242150000000     0.888956666667     0.644030000000     0          
Si       Si     0.300493333333     0.934320000000     0.431180000000     0          
Si       Si     0.032740000000     0.732146666667     0.568340000000     0          
Si       Si     0.144606666667     0.855393333333     0.068100000000     0          
Si       Si     0.189383333333     0.810616666667     0.931240000000     0          
Si       Si     0.292183333333     0.917700000000     0.327460000000     0          
Si       Si     0.041123333333     0.748913333333     0.672200000000     0          
Si       Si     0.152280000000     0.971226666667     0.327390000000     0          
Si       Si     0.180996666667     0.695326666667     0.671850000000     0          
Si       Si     0.180030000000     0.693393333333     0.279980000000     0          
Si       Si     0.153360000000     0.973386666667     0.719340000000     0          
Si       Si     0.068946666667     0.804560000000     0.780080000000     0          
Si       Si     0.264346666667     0.862026666667     0.219490000000     0          
O        O      0.313030000000     0.686970000000     0.457170000000     0          
O        O      0.020283333333     0.979716666667     0.542270000000     0          
O        O      0.070493333333     0.868580000000     0.457230000000     0          
O        O      0.266053333333     0.799693333333     0.541160000000     0          
O        O      0.257610000000     0.909726666667     0.430780000000     0          
O        O      0.313013333333     0.959360000000     0.405170000000     0          
O        O      0.075610000000     0.756703333333     0.568720000000     0          
O        O      0.020300000000     0.707266666667     0.594430000000     0          
O        O      0.187460000000     0.873726666667     0.069200000000     0          
O        O      0.131403333333     0.868596666667     0.093340000000     0          
O        O      0.146496666667     0.792326666667     0.930850000000     0          
O        O      0.201903333333     0.798096666667     0.905230000000     0          
O        O      0.222220000000     0.944443333333     0.428340000000     0          
O        O      0.222136666667     0.982193333333     0.387540000000     0          
O        O      0.111806666667     0.722570000000     0.570900000000     0          
O        O      0.110653333333     0.684790000000     0.612090000000     0          
O        O      0.313106666667     0.686893333333     0.320040000000     0          
O        O      0.020213333333     0.979786666667     0.679690000000     0          
O        O      0.070660000000     0.868663333333     0.320090000000     0          
O        O      0.262640000000     0.797986666667     0.678660000000     0          
O        O      0.055586666667     0.777840000000     0.346680000000     0          
O        O      0.091210000000     0.742806666667     0.344490000000     0          
O        O      0.126236666667     0.812693333333     0.344400000000     0          
O        O      0.277640000000     0.888613333333     0.653320000000     0          
O        O      0.242246666667     0.923926666667     0.655160000000     0          
O        O      0.206913333333     0.854110000000     0.654870000000     0          
O        O      0.281173333333     0.895680000000     0.300020000000     0          
O        O      0.052173333333     0.771013333333     0.699600000000     0          
O        O      0.163233333333     0.993133333333     0.299900000000     0          
O        O      0.170193333333     0.673720000000     0.699480000000     0          
O        O      0.173180000000     0.679693333333     0.249670000000     0          
O        O      0.222196666667     0.717133333333     0.285650000000     0          
O        O      0.171740000000     0.949566666667     0.713800000000     0          
O        O      0.062100000000     0.790866666667     0.749770000000     0          
Si       Si     0.222203333333     0.908636666667     0.419450000000     0          
Si       Si     0.110963333333     0.757810000000     0.580170000000     0          
Si       Si     0.091350000000     0.980213333333     0.355620000000     0          
Si       Si     0.242150000000     0.686526666667     0.644030000000     0          
O        O      0.257610000000     0.681216666667     0.430780000000     0          
O        O      0.075610000000     0.985573333333     0.568720000000     0          
O        O      0.187460000000     0.980400000000     0.069200000000     0          
O        O      0.146496666667     0.687503333333     0.930850000000     0          
O        O      0.222136666667     0.906610000000     0.387540000000     0          
O        O      0.110653333333     0.759196666667     0.612090000000     0          
O        O      0.091210000000     0.681736666667     0.344490000000     0          
O        O      0.126236666667     0.980210000000     0.344400000000     0          
O        O      0.242246666667     0.984986666667     0.655160000000     0          
O        O      0.206913333333     0.686136666667     0.654870000000     0          
O        O      0.222196666667     0.838396666667     0.285650000000     0          
O        O      0.171740000000     0.888840000000     0.713800000000     0          
Si       Si     0.313566666667     0.888870000000     0.919450000000     0          
Si       Si     0.019820000000     0.777630000000     0.080170000000     0          
Si       Si     0.111136666667     0.758016666667     0.855620000000     0          
Si       Si     0.222290000000     0.908816666667     0.144030000000     0          
O        O      0.243060000000     0.924276666667     0.930780000000     0          
O        O      0.090036666667     0.742276666667     0.068720000000     0          
O        O      0.207060000000     0.854126666667     0.569200000000     0          
O        O      0.125660000000     0.813163333333     0.430850000000     0          
O        O      0.315526666667     0.888803333333     0.887540000000     0          
O        O      0.018123333333     0.777320000000     0.112090000000     0          
O        O      0.076140000000     0.757876666667     0.844490000000     0          
O        O      0.146026666667     0.792903333333     0.844400000000     0          
O        O      0.257260000000     0.908913333333     0.155160000000     0          
O        O      0.187443333333     0.873580000000     0.154870000000     0          
O        O      0.050466666667     0.888863333333     0.785650000000     0          
O        O      0.282900000000     0.838406666667     0.213800000000     0          
Si       Si     0.091363333333     0.980233333333     0.419450000000     0          
Si       Si     0.242190000000     0.686486666667     0.580170000000     0          
Si       Si     0.019786666667     0.777803333333     0.355620000000     0          
Si       Si     0.313473333333     0.888956666667     0.644030000000     0          
O        O      0.318783333333     0.909726666667     0.430780000000     0          
O        O      0.014426666667     0.756703333333     0.568720000000     0          
O        O      0.019600000000     0.873726666667     0.069200000000     0          
O        O      0.312496666667     0.792326666667     0.930850000000     0          
O        O      0.093390000000     0.982193333333     0.387540000000     0          
O        O      0.240803333333     0.684790000000     0.612090000000     0          
O        O      0.318263333333     0.742806666667     0.344490000000     0          
O        O      0.019790000000     0.812693333333     0.344400000000     0          
O        O      0.015013333333     0.923926666667     0.655160000000     0          
O        O      0.313863333333     0.854110000000     0.654870000000     0          
O        O      0.161603333333     0.717133333333     0.285650000000     0          
O        O      0.111160000000     0.949566666667     0.713800000000     0          
Si       Si     0.111130000000     0.758030000000     0.919450000000     0          
Si       Si     0.222370000000     0.908856666667     0.080170000000     0          
Si       Si     0.241983333333     0.686453333333     0.855620000000     0          
Si       Si     0.091183333333     0.980140000000     0.144030000000     0          
O        O      0.075723333333     0.985450000000     0.930780000000     0          
O        O      0.257723333333     0.681093333333     0.068720000000     0          
O        O      0.145873333333     0.686266666667     0.569200000000     0          
O        O      0.186836666667     0.979163333333     0.430850000000     0          
O        O      0.111196666667     0.760056666667     0.887540000000     0          
O        O      0.222680000000     0.907470000000     0.112090000000     0          
O        O      0.242123333333     0.984930000000     0.844490000000     0          
O        O      0.207096666667     0.686456666667     0.844400000000     0          
O        O      0.091086666667     0.681680000000     0.155160000000     0          
O        O      0.126420000000     0.980530000000     0.154870000000     0          
O        O      0.111136666667     0.828270000000     0.785650000000     0          
O        O      0.161593333333     0.777826666667     0.213800000000     0          
Si       Si     0.019766666667     0.777796666667     0.419450000000     0          
Si       Si     0.313513333333     0.889036666667     0.580170000000     0          
Si       Si     0.222196666667     0.908650000000     0.355620000000     0          
Si       Si     0.111043333333     0.757850000000     0.644030000000     0          
O        O      0.090273333333     0.742390000000     0.430780000000     0          
O        O      0.243296666667     0.924390000000     0.568720000000     0          
O        O      0.126273333333     0.812540000000     0.069200000000     0          
O        O      0.207673333333     0.853503333333     0.930850000000     0          
O        O      0.017806666667     0.777863333333     0.387540000000     0          
O        O      0.315210000000     0.889346666667     0.612090000000     0          
O        O      0.257193333333     0.908790000000     0.344490000000     0          
O        O      0.187306666667     0.873763333333     0.344400000000     0          
O        O      0.076073333333     0.757753333333     0.655160000000     0          
O        O      0.145890000000     0.793086666667     0.654870000000     0          
O        O      0.282866666667     0.777803333333     0.285650000000     0          
O        O      0.050433333333     0.828260000000     0.713800000000     0          
Si       Si     0.241970000000     0.686433333333     0.919450000000     0          
Si       Si     0.091143333333     0.980180000000     0.080170000000     0          
Si       Si     0.313546666667     0.888863333333     0.855620000000     0          
Si       Si     0.019860000000     0.777710000000     0.144030000000     0          
O        O      0.014550000000     0.756940000000     0.930780000000     0          
O        O      0.318906666667     0.909963333333     0.068720000000     0          
O        O      0.313733333333     0.792940000000     0.569200000000     0          
O        O      0.020836666667     0.874340000000     0.430850000000     0          
O        O      0.239943333333     0.684473333333     0.887540000000     0          
O        O      0.092530000000     0.981876666667     0.112090000000     0          
O        O      0.015070000000     0.923860000000     0.844490000000     0          
O        O      0.313543333333     0.853973333333     0.844400000000     0          
O        O      0.318320000000     0.742740000000     0.155160000000     0          
O        O      0.019470000000     0.812556666667     0.154870000000     0          
O        O      0.171730000000     0.949533333333     0.785650000000     0          
O        O      0.222173333333     0.717100000000     0.213800000000     0          
Si       Si     0.575303333333     0.222203333333     0.919450000000     0          
Si       Si     0.424476666667     0.110963333333     0.080170000000     0          
Si       Si     0.646880000000     0.091350000000     0.855620000000     0          
Si       Si     0.353193333333     0.242150000000     0.144030000000     0          
Si       Si     0.366173333333     0.300493333333     0.931180000000     0          
Si       Si     0.633926666667     0.032740000000     0.068340000000     0          
Si       Si     0.622546666667     0.144606666667     0.568100000000     0          
Si       Si     0.378766666667     0.189383333333     0.431240000000     0          
Si       Si     0.374483333333     0.292183333333     0.827460000000     0          
Si       Si     0.625543333333     0.041123333333     0.172200000000     0          
Si       Si     0.514386666667     0.152280000000     0.827390000000     0          
Si       Si     0.485670000000     0.180996666667     0.171850000000     0          
Si       Si     0.486636666667     0.180030000000     0.779980000000     0          
Si       Si     0.513306666667     0.153360000000     0.219340000000     0          
Si       Si     0.597720000000     0.068946666667     0.280080000000     0          
Si       Si     0.402320000000     0.264346666667     0.719490000000     0          
Si       Si     0.444443333333     0.222223333333     0.467790000000     0          
Si       Si     0.444443333333     0.222223333333     0.103910000000     0          
Si       Si     0.555556666667     0.111110000000     0.894750000000     0          
Si       Si     0.555556666667     0.111110000000     0.830890000000     0          
Si       Si     0.444443333333     0.222223333333     0.167770000000     0          
Si       Si     0.333333333333     0.000000000000     0.967750000000     0          
Si       Si     0.333333333333     0.000000000000     0.031620000000     0          
Si       Si     0.333333333333     0.000000000000     0.894700000000     0          
Si       Si     0.333333333333     0.000000000000     0.104980000000     0          
Si       Si     0.333333333333     0.000000000000     0.830840000000     0          
Si       Si     0.333333333333     0.000000000000     0.168840000000     0          
O        O      0.626060000000     0.313030000000     0.957170000000     0          
O        O      0.333333333333     0.000000000000     0.999690000000     0          
O        O      0.373900000000     0.020283333333     0.042270000000     0          
O        O      0.535246666667     0.070493333333     0.957230000000     0          
O        O      0.444443333333     0.222223333333     0.499760000000     0          
O        O      0.466360000000     0.266053333333     0.041160000000     0          
O        O      0.347883333333     0.257610000000     0.930780000000     0          
O        O      0.353653333333     0.313013333333     0.905170000000     0          
O        O      0.652240000000     0.075610000000     0.068720000000     0          
O        O      0.646366666667     0.020300000000     0.094430000000     0          
O        O      0.647066666667     0.187460000000     0.569200000000     0          
O        O      0.596140000000     0.131403333333     0.593340000000     0          
O        O      0.354170000000     0.146496666667     0.430850000000     0          
O        O      0.403806666667     0.201903333333     0.405230000000     0          
O        O      0.611110000000     0.222220000000     0.928340000000     0          
O        O      0.573276666667     0.222136666667     0.887540000000     0          
O        O      0.389236666667     0.111806666667     0.070900000000     0          
O        O      0.425863333333     0.110653333333     0.112090000000     0          
O        O      0.333333333333     0.000000000000     0.862770000000     0          
O        O      0.333333333333     0.000000000000     0.136910000000     0          
O        O      0.555556666667     0.111110000000     0.862820000000     0          
O        O      0.444443333333     0.222223333333     0.135850000000     0          
O        O      0.626213333333     0.313106666667     0.820040000000     0          
O        O      0.373760000000     0.020213333333     0.179690000000     0          
O        O      0.535330000000     0.070660000000     0.820090000000     0          
O        O      0.464653333333     0.262640000000     0.178660000000     0          
O        O      0.611080000000     0.055586666667     0.846680000000     0          
O        O      0.348403333333     0.091210000000     0.844490000000     0          
O        O      0.646876666667     0.126236666667     0.844400000000     0          
O        O      0.389026666667     0.277640000000     0.153320000000     0          
O        O      0.651653333333     0.242246666667     0.155160000000     0          
O        O      0.352803333333     0.206913333333     0.154870000000     0          
O        O      0.385493333333     0.281173333333     0.800020000000     0          
O        O      0.614493333333     0.052173333333     0.199600000000     0          
O        O      0.503433333333     0.163233333333     0.799900000000     0          
O        O      0.496473333333     0.170193333333     0.199480000000     0          
O        O      0.493486666667     0.173180000000     0.749670000000     0          
O        O      0.505063333333     0.222196666667     0.785650000000     0          
O        O      0.555506666667     0.171740000000     0.213800000000     0          
O        O      0.604566666667     0.062100000000     0.249770000000     0          
Si       Si     0.353100000000     0.241970000000     0.419450000000     0          
Si       Si     0.646846666667     0.091143333333     0.580170000000     0          
Si       Si     0.555530000000     0.313546666667     0.355620000000     0          
Si       Si     0.444376666667     0.019860000000     0.644030000000     0          
Si       Si     0.399013333333     0.032840000000     0.431180000000     0          
Si       Si     0.601186666667     0.300593333333     0.568340000000     0          
Si       Si     0.477940000000     0.289213333333     0.068100000000     0          
Si       Si     0.522716666667     0.045433333333     0.931240000000     0          
Si       Si     0.415633333333     0.041150000000     0.327460000000     0          
Si       Si     0.584420000000     0.292210000000     0.672200000000     0          
Si       Si     0.362106666667     0.181053333333     0.327390000000     0          
Si       Si     0.638006666667     0.152336666667     0.671850000000     0          
Si       Si     0.639940000000     0.153303333333     0.279980000000     0          
Si       Si     0.359946666667     0.179973333333     0.719340000000     0          
Si       Si     0.528773333333     0.264386666667     0.780080000000     0          
Si       Si     0.471306666667     0.068986666667     0.219490000000     0          
Si       Si     0.555553333333     0.111110000000     0.967790000000     0          
Si       Si     0.555553333333     0.111110000000     0.603910000000     0          
Si       Si     0.444446666667     0.222223333333     0.394750000000     0          
Si       Si     0.444446666667     0.222223333333     0.330890000000     0          
Si       Si     0.555553333333     0.111110000000     0.667770000000     0          
Si       Si     0.333333333333     0.000000000000     0.467750000000     0          
Si       Si     0.333333333333     0.000000000000     0.531620000000     0          
Si       Si     0.333333333333     0.000000000000     0.394700000000     0          
Si       Si     0.333333333333     0.000000000000     0.604980000000     0          
Si       Si     0.333333333333     0.000000000000     0.330840000000     0          
Si       Si     0.333333333333     0.000000000000     0.668840000000     0          
O        O      0.646363333333     0.292726666667     0.457170000000     0          
O        O      0.333333333333     0.000000000000     0.499690000000     0          
O        O      0.353616666667     0.040566666667     0.542270000000     0          
O        O      0.464753333333     0.201913333333     0.457230000000     0          
O        O      0.555553333333     0.111110000000     0.999760000000     0          
O        O      0.533640000000     0.133026666667     0.541160000000     0          
O        O      0.423606666667     0.014550000000     0.430780000000     0          
O        O      0.373973333333     0.020320000000     0.405170000000     0          
O        O      0.576630000000     0.318906666667     0.568720000000     0          
O        O      0.626066666667     0.313033333333     0.594430000000     0          
O        O      0.459606666667     0.313733333333     0.069200000000     0          
O        O      0.464736666667     0.262806666667     0.093340000000     0          
O        O      0.541006666667     0.020836666667     0.930850000000     0          
O        O      0.535236666667     0.070473333333     0.905230000000     0          
O        O      0.388890000000     0.277776666667     0.428340000000     0          
O        O      0.351140000000     0.239943333333     0.387540000000     0          
O        O      0.610763333333     0.055903333333     0.570900000000     0          
O        O      0.648543333333     0.092530000000     0.612090000000     0          
O        O      0.333333333333     0.000000000000     0.362770000000     0          
O        O      0.333333333333     0.000000000000     0.636910000000     0          
O        O      0.444446666667     0.222223333333     0.362820000000     0          
O        O      0.555553333333     0.111110000000     0.635850000000     0          
O        O      0.646440000000     0.292880000000     0.320040000000     0          
O        O      0.353546666667     0.040426666667     0.679690000000     0          
O        O      0.464670000000     0.201996666667     0.320090000000     0          
O        O      0.535346666667     0.131320000000     0.678660000000     0          
O        O      0.555493333333     0.277746666667     0.346680000000     0          
O        O      0.590526666667     0.015070000000     0.344490000000     0          
O        O      0.520640000000     0.313543333333     0.344400000000     0          
O        O      0.444720000000     0.055693333333     0.653320000000     0          
O        O      0.409406666667     0.318320000000     0.655160000000     0          
O        O      0.479223333333     0.019470000000     0.654870000000     0          
O        O      0.437653333333     0.052160000000     0.300020000000     0          
O        O      0.562320000000     0.281160000000     0.699600000000     0          
O        O      0.340200000000     0.170100000000     0.299900000000     0          
O        O      0.659613333333     0.163140000000     0.699480000000     0          
O        O      0.653640000000     0.160153333333     0.249670000000     0          
O        O      0.616200000000     0.171730000000     0.285650000000     0          
O        O      0.383766666667     0.222173333333     0.713800000000     0          
O        O      0.542466666667     0.271233333333     0.749770000000     0          
Si       Si     0.444463333333     0.019766666667     0.919450000000     0          
Si       Si     0.555703333333     0.313513333333     0.080170000000     0          
Si       Si     0.575316666667     0.222196666667     0.855620000000     0          
Si       Si     0.424516666667     0.111043333333     0.144030000000     0          
Si       Si     0.366173333333     0.065680000000     0.931180000000     0          
Si       Si     0.633926666667     0.267853333333     0.068340000000     0          
Si       Si     0.522060000000     0.144606666667     0.568100000000     0          
Si       Si     0.477283333333     0.189383333333     0.431240000000     0          
Si       Si     0.374483333333     0.082300000000     0.827460000000     0          
Si       Si     0.625543333333     0.251086666667     0.172200000000     0          
Si       Si     0.514386666667     0.028773333333     0.827390000000     0          
Si       Si     0.485670000000     0.304673333333     0.171850000000     0          
Si       Si     0.486636666667     0.306606666667     0.779980000000     0          
Si       Si     0.513306666667     0.026613333333     0.219340000000     0          
Si       Si     0.597720000000     0.195440000000     0.280080000000     0          
Si       Si     0.402320000000     0.137973333333     0.719490000000     0          
O        O      0.353636666667     0.313030000000     0.957170000000     0          
O        O      0.646383333333     0.020283333333     0.042270000000     0          
O        O      0.596173333333     0.131420000000     0.957230000000     0          
O        O      0.400613333333     0.200306666667     0.041160000000     0          
O        O      0.409056666667     0.090273333333     0.930780000000     0          
O        O      0.353653333333     0.040640000000     0.905170000000     0          
O        O      0.591056666667     0.243296666667     0.068720000000     0          
O        O      0.646366666667     0.292733333333     0.094430000000     0          
O        O      0.479206666667     0.126273333333     0.569200000000     0          
O        O      0.535263333333     0.131403333333     0.593340000000     0          
O        O      0.520170000000     0.207673333333     0.430850000000     0          
O        O      0.464763333333     0.201903333333     0.405230000000     0          
O        O      0.444446666667     0.055556666667     0.928340000000     0          
O        O      0.444530000000     0.017806666667     0.887540000000     0          
O        O      0.554860000000     0.277430000000     0.070900000000     0          
O        O      0.556013333333     0.315210000000     0.112090000000     0          
O        O      0.353560000000     0.313106666667     0.820040000000     0          
O        O      0.646453333333     0.020213333333     0.179690000000     0          
O        O      0.596006666667     0.131336666667     0.820090000000     0          
O        O      0.404026666667     0.202013333333     0.178660000000     0          
O        O      0.611080000000     0.222160000000     0.846680000000     0          
O        O      0.575456666667     0.257193333333     0.844490000000     0          
O        O      0.540430000000     0.187306666667     0.844400000000     0          
O        O      0.389026666667     0.111386666667     0.153320000000     0          
O        O      0.424420000000     0.076073333333     0.155160000000     0          
O        O      0.459753333333     0.145890000000     0.154870000000     0          
O        O      0.385493333333     0.104320000000     0.800020000000     0          
O        O      0.614493333333     0.228986666667     0.199600000000     0          
O        O      0.503433333333     0.006866666667     0.799900000000     0          
O        O      0.496473333333     0.326280000000     0.199480000000     0          
O        O      0.493486666667     0.320306666667     0.749670000000     0          
O        O      0.444470000000     0.282866666667     0.785650000000     0          
O        O      0.494926666667     0.050433333333     0.213800000000     0          
O        O      0.604566666667     0.209133333333     0.249770000000     0          
Si       Si     0.424696666667     0.111130000000     0.419450000000     0          
Si       Si     0.575523333333     0.222370000000     0.580170000000     0          
Si       Si     0.353120000000     0.241983333333     0.355620000000     0          
Si       Si     0.646806666667     0.091183333333     0.644030000000     0          
Si       Si     0.633826666667     0.032840000000     0.431180000000     0          
Si       Si     0.366073333333     0.300593333333     0.568340000000     0          
Si       Si     0.377453333333     0.188726666667     0.068100000000     0          
Si       Si     0.621233333333     0.143950000000     0.931240000000     0          
Si       Si     0.625516666667     0.041150000000     0.327460000000     0          
Si       Si     0.374456666667     0.292210000000     0.672200000000     0          
Si       Si     0.485613333333     0.181053333333     0.327390000000     0          
Si       Si     0.514330000000     0.152336666667     0.671850000000     0          
Si       Si     0.513363333333     0.153303333333     0.279980000000     0          
Si       Si     0.486693333333     0.179973333333     0.719340000000     0          
Si       Si     0.402280000000     0.264386666667     0.780080000000     0          
Si       Si     0.597680000000     0.068986666667     0.219490000000     0          
O        O      0.373940000000     0.020303333333     0.457170000000     0          
O        O      0.626100000000     0.313050000000     0.542270000000     0          
O        O      0.464753333333     0.262840000000     0.457230000000     0          
O        O      0.533640000000     0.067280000000     0.541160000000     0          
O        O      0.652116666667     0.075723333333     0.430780000000     0          
O        O      0.646346666667     0.020320000000     0.405170000000     0          
O        O      0.347760000000     0.257723333333     0.568720000000     0          
O        O      0.353633333333     0.313033333333     0.594430000000     0          
O        O      0.352933333333     0.145873333333     0.069200000000     0          
O        O      0.403860000000     0.201930000000     0.093340000000     0          
O        O      0.645830000000     0.186836666667     0.930850000000     0          
O        O      0.596193333333     0.131430000000     0.905230000000     0          
O        O      0.388890000000     0.111113333333     0.428340000000     0          
O        O      0.426723333333     0.111196666667     0.387540000000     0          
O        O      0.610763333333     0.221526666667     0.570900000000     0          
O        O      0.574136666667     0.222680000000     0.612090000000     0          
O        O      0.373786666667     0.020226666667     0.320040000000     0          
O        O      0.626240000000     0.313120000000     0.679690000000     0          
O        O      0.464670000000     0.262673333333     0.320090000000     0          
O        O      0.535346666667     0.070693333333     0.678660000000     0          
O        O      0.388920000000     0.277746666667     0.346680000000     0          
O        O      0.651596666667     0.242123333333     0.344490000000     0          
O        O      0.353123333333     0.207096666667     0.344400000000     0          
O        O      0.610973333333     0.055693333333     0.653320000000     0          
O        O      0.348346666667     0.091086666667     0.655160000000     0          
O        O      0.647196666667     0.126420000000     0.654870000000     0          
O        O      0.614506666667     0.052160000000     0.300020000000     0          
O        O      0.385506666667     0.281160000000     0.699600000000     0          
O        O      0.496566666667     0.170100000000     0.299900000000     0          
O        O      0.503526666667     0.163140000000     0.699480000000     0          
O        O      0.506513333333     0.160153333333     0.249670000000     0          
O        O      0.494936666667     0.111136666667     0.285650000000     0          
O        O      0.444493333333     0.161593333333     0.713800000000     0          
O        O      0.395433333333     0.271233333333     0.749770000000     0          
Si       Si     0.646900000000     0.091363333333     0.919450000000     0          
Si       Si     0.353153333333     0.242190000000     0.080170000000     0          
Si       Si     0.444470000000     0.019786666667     0.855620000000     0          
Si       Si     0.555623333333     0.313473333333     0.144030000000     0          
Si       Si     0.600986666667     0.300493333333     0.931180000000     0          
Si       Si     0.398813333333     0.032740000000     0.068340000000     0          
Si       Si     0.522060000000     0.044120000000     0.568100000000     0          
Si       Si     0.477283333333     0.287900000000     0.431240000000     0          
Si       Si     0.584366666667     0.292183333333     0.827460000000     0          
Si       Si     0.415580000000     0.041123333333     0.172200000000     0          
Si       Si     0.637893333333     0.152280000000     0.827390000000     0          
Si       Si     0.361993333333     0.180996666667     0.171850000000     0          
Si       Si     0.360060000000     0.180030000000     0.779980000000     0          
Si       Si     0.640053333333     0.153360000000     0.219340000000     0          
Si       Si     0.471226666667     0.068946666667     0.280080000000     0          
Si       Si     0.528693333333     0.264346666667     0.719490000000     0          
O        O      0.353636666667     0.040606666667     0.957170000000     0          
O        O      0.646383333333     0.292766666667     0.042270000000     0          
O        O      0.535246666667     0.131420000000     0.957230000000     0          
O        O      0.466360000000     0.200306666667     0.041160000000     0          
O        O      0.576393333333     0.318783333333     0.930780000000     0          
O        O      0.626026666667     0.313013333333     0.905170000000     0          
O        O      0.423370000000     0.014426666667     0.068720000000     0          
O        O      0.373933333333     0.020300000000     0.094430000000     0          
O        O      0.540393333333     0.019600000000     0.569200000000     0          
O        O      0.535263333333     0.070526666667     0.593340000000     0          
O        O      0.458993333333     0.312496666667     0.430850000000     0          
O        O      0.464763333333     0.262860000000     0.405230000000     0          
O        O      0.611110000000     0.055556666667     0.928340000000     0          
O        O      0.648860000000     0.093390000000     0.887540000000     0          
O        O      0.389236666667     0.277430000000     0.070900000000     0          
O        O      0.351456666667     0.240803333333     0.112090000000     0          
O        O      0.353560000000     0.040453333333     0.820040000000     0          
O        O      0.646453333333     0.292906666667     0.179690000000     0          
O        O      0.535330000000     0.131336666667     0.820090000000     0          
O        O      0.464653333333     0.202013333333     0.178660000000     0          
O        O      0.444506666667     0.055586666667     0.846680000000     0          
O        O      0.409473333333     0.318263333333     0.844490000000     0          
O        O      0.479360000000     0.019790000000     0.844400000000     0          
O        O      0.555280000000     0.277640000000     0.153320000000     0          
O        O      0.590593333333     0.015013333333     0.155160000000     0          
O        O      0.520776666667     0.313863333333     0.154870000000     0          
O        O      0.562346666667     0.281173333333     0.800020000000     0          
O        O      0.437680000000     0.052173333333     0.199600000000     0          
O        O      0.659800000000     0.163233333333     0.799900000000     0          
O        O      0.340386666667     0.170193333333     0.199480000000     0          
O        O      0.346360000000     0.173180000000     0.749670000000     0          
O        O      0.383800000000     0.161603333333     0.785650000000     0          
O        O      0.616233333333     0.111160000000     0.213800000000     0          
O        O      0.457533333333     0.062100000000     0.249770000000     0          
Si       Si     0.555536666667     0.313566666667     0.419450000000     0          
Si       Si     0.444296666667     0.019820000000     0.580170000000     0          
Si       Si     0.424683333333     0.111136666667     0.355620000000     0          
Si       Si     0.575483333333     0.222290000000     0.644030000000     0          
Si       Si     0.633826666667     0.267653333333     0.431180000000     0          
Si       Si     0.366073333333     0.065480000000     0.568340000000     0          
Si       Si     0.477940000000     0.188726666667     0.068100000000     0          
Si       Si     0.522716666667     0.143950000000     0.931240000000     0          
Si       Si     0.625516666667     0.251033333333     0.327460000000     0          
Si       Si     0.374456666667     0.082246666667     0.672200000000     0          
Si       Si     0.485613333333     0.304560000000     0.327390000000     0          
Si       Si     0.514330000000     0.028660000000     0.671850000000     0          
Si       Si     0.513363333333     0.026726666667     0.279980000000     0          
Si       Si     0.486693333333     0.306720000000     0.719340000000     0          
Si       Si     0.402280000000     0.137893333333     0.780080000000     0          
Si       Si     0.597680000000     0.195360000000     0.219490000000     0          
O        O      0.646363333333     0.020303333333     0.457170000000     0          
O        O      0.353616666667     0.313050000000     0.542270000000     0          
O        O      0.403826666667     0.201913333333     0.457230000000     0          
O        O      0.599386666667     0.133026666667     0.541160000000     0          
O        O      0.590943333333     0.243060000000     0.430780000000     0          
O        O      0.646346666667     0.292693333333     0.405170000000     0          
O        O      0.408943333333     0.090036666667     0.568720000000     0          
O        O      0.353633333333     0.040600000000     0.594430000000     0          
O        O      0.520793333333     0.207060000000     0.069200000000     0          
O        O      0.464736666667     0.201930000000     0.093340000000     0          
O        O      0.479830000000     0.125660000000     0.930850000000     0          
O        O      0.535236666667     0.131430000000     0.905230000000     0          
O        O      0.555553333333     0.277776666667     0.428340000000     0          
O        O      0.555470000000     0.315526666667     0.387540000000     0          
O        O      0.445140000000     0.055903333333     0.570900000000     0          
O        O      0.443986666667     0.018123333333     0.612090000000     0          
O        O      0.646440000000     0.020226666667     0.320040000000     0          
O        O      0.353546666667     0.313120000000     0.679690000000     0          
O        O      0.403993333333     0.201996666667     0.320090000000     0          
O        O      0.595973333333     0.131320000000     0.678660000000     0          
O        O      0.388920000000     0.111173333333     0.346680000000     0          
O        O      0.424543333333     0.076140000000     0.344490000000     0          
O        O      0.459570000000     0.146026666667     0.344400000000     0          
O        O      0.610973333333     0.221946666667     0.653320000000     0          
O        O      0.575580000000     0.257260000000     0.655160000000     0          
O        O      0.540246666667     0.187443333333     0.654870000000     0          
O        O      0.614506666667     0.229013333333     0.300020000000     0          
O        O      0.385506666667     0.104346666667     0.699600000000     0          
O        O      0.496566666667     0.326466666667     0.299900000000     0          
O        O      0.503526666667     0.007053333333     0.699480000000     0          
O        O      0.506513333333     0.013026666667     0.249670000000     0          
O        O      0.555530000000     0.050466666667     0.285650000000     0          
O        O      0.505073333333     0.282900000000     0.713800000000     0          
O        O      0.395433333333     0.124200000000     0.749770000000     0          
Si       Si     0.555536666667     0.241970000000     0.419450000000     0          
Si       Si     0.444296666667     0.091143333333     0.580170000000     0          
Si       Si     0.424683333333     0.313546666667     0.355620000000     0          
Si       Si     0.575483333333     0.019860000000     0.644030000000     0          
O        O      0.590943333333     0.014550000000     0.430780000000     0          
O        O      0.408943333333     0.318906666667     0.568720000000     0          
O        O      0.520793333333     0.313733333333     0.069200000000     0          
O        O      0.479830000000     0.020836666667     0.930850000000     0          
O        O      0.555470000000     0.239943333333     0.387540000000     0          
O        O      0.443986666667     0.092530000000     0.612090000000     0          
O        O      0.424543333333     0.015070000000     0.344490000000     0          
O        O      0.459570000000     0.313543333333     0.344400000000     0          
O        O      0.575580000000     0.318320000000     0.655160000000     0          
O        O      0.540246666667     0.019470000000     0.654870000000     0          
O        O      0.555530000000     0.171730000000     0.285650000000     0          
O        O      0.505073333333     0.222173333333     0.713800000000     0          
Si       Si     0.646900000000     0.222203333333     0.919450000000     0          
Si       Si     0.353153333333     0.110963333333     0.080170000000     0          
Si       Si     0.444470000000     0.091350000000     0.855620000000     0          
Si       Si     0.555623333333     0.242150000000     0.144030000000     0          
O        O      0.576393333333     0.257610000000     0.930780000000     0          
O        O      0.423370000000     0.075610000000     0.068720000000     0          
O        O      0.540393333333     0.187460000000     0.569200000000     0          
O        O      0.458993333333     0.146496666667     0.430850000000     0          
O        O      0.648860000000     0.222136666667     0.887540000000     0          
O        O      0.351456666667     0.110653333333     0.112090000000     0          
O        O      0.409473333333     0.091210000000     0.844490000000     0          
O        O      0.479360000000     0.126236666667     0.844400000000     0          
O        O      0.590593333333     0.242246666667     0.155160000000     0          
O        O      0.520776666667     0.206913333333     0.154870000000     0          
O        O      0.383800000000     0.222196666667     0.785650000000     0          
O        O      0.616233333333     0.171740000000     0.213800000000     0          
Si       Si     0.424696666667     0.313566666667     0.419450000000     0          
Si       Si     0.575523333333     0.019820000000     0.580170000000     0          
Si       Si     0.353120000000     0.111136666667     0.355620000000     0          
Si       Si     0.646806666667     0.222290000000     0.644030000000     0          
O        O      0.652116666667     0.243060000000     0.430780000000     0          
O        O      0.347760000000     0.090036666667     0.568720000000     0          
O        O      0.352933333333     0.207060000000     0.069200000000     0          
O        O      0.645830000000     0.125660000000     0.930850000000     0          
O        O      0.426723333333     0.315526666667     0.387540000000     0          
O        O      0.574136666667     0.018123333333     0.612090000000     0          
O        O      0.651596666667     0.076140000000     0.344490000000     0          
O        O      0.353123333333     0.146026666667     0.344400000000     0          
O        O      0.348346666667     0.257260000000     0.655160000000     0          
O        O      0.647196666667     0.187443333333     0.654870000000     0          
O        O      0.494936666667     0.050466666667     0.285650000000     0          
O        O      0.444493333333     0.282900000000     0.713800000000     0          
Si       Si     0.444463333333     0.091363333333     0.919450000000     0          
Si       Si     0.555703333333     0.242190000000     0.080170000000     0          
Si       Si     0.575316666667     0.019786666667     0.855620000000     0          
Si       Si     0.424516666667     0.313473333333     0.144030000000     0          
O        O      0.409056666667     0.318783333333     0.930780000000     0          
O        O      0.591056666667     0.014426666667     0.068720000000     0          
O        O      0.479206666667     0.019600000000     0.569200000000     0          
O        O      0.520170000000     0.312496666667     0.430850000000     0          
O        O      0.444530000000     0.093390000000     0.887540000000     0          
O        O      0.556013333333     0.240803333333     0.112090000000     0          
O        O      0.575456666667     0.318263333333     0.844490000000     0          
O        O      0.540430000000     0.019790000000     0.844400000000     0          
O        O      0.424420000000     0.015013333333     0.155160000000     0          
O        O      0.459753333333     0.313863333333     0.154870000000     0          
O        O      0.444470000000     0.161603333333     0.785650000000     0          
O        O      0.494926666667     0.111160000000     0.213800000000     0          
Si       Si     0.353100000000     0.111130000000     0.419450000000     0          
Si       Si     0.646846666667     0.222370000000     0.580170000000     0          
Si       Si     0.555530000000     0.241983333333     0.355620000000     0          
Si       Si     0.444376666667     0.091183333333     0.644030000000     0          
O        O      0.423606666667     0.075723333333     0.430780000000     0          
O        O      0.576630000000     0.257723333333     0.568720000000     0          
O        O      0.459606666667     0.145873333333     0.069200000000     0          
O        O      0.541006666667     0.186836666667     0.930850000000     0          
O        O      0.351140000000     0.111196666667     0.387540000000     0          
O        O      0.648543333333     0.222680000000     0.612090000000     0          
O        O      0.590526666667     0.242123333333     0.344490000000     0          
O        O      0.520640000000     0.207096666667     0.344400000000     0          
O        O      0.409406666667     0.091086666667     0.655160000000     0          
O        O      0.479223333333     0.126420000000     0.654870000000     0          
O        O      0.616200000000     0.111136666667     0.285650000000     0          
O        O      0.383766666667     0.161593333333     0.713800000000     0          
Si       Si     0.575303333333     0.019766666667     0.919450000000     0          
Si       Si     0.424476666667     0.313513333333     0.080170000000     0          
Si       Si     0.646880000000     0.222196666667     0.855620000000     0          
Si       Si     0.353193333333     0.111043333333     0.144030000000     0          
O        O      0.347883333333     0.090273333333     0.930780000000     0          
O        O      0.652240000000     0.243296666667     0.068720000000     0          
O        O      0.647066666667     0.126273333333     0.569200000000     0          
O        O      0.354170000000     0.207673333333     0.430850000000     0          
O        O      0.573276666667     0.017806666667     0.887540000000     0          
O        O      0.425863333333     0.315210000000     0.112090000000     0          
O        O      0.348403333333     0.257193333333     0.844490000000     0          
O        O      0.646876666667     0.187306666667     0.844400000000     0          
O        O      0.651653333333     0.076073333333     0.155160000000     0          
O        O      0.352803333333     0.145890000000     0.154870000000     0          
O        O      0.505063333333     0.282866666667     0.785650000000     0          
O        O      0.555506666667     0.050433333333     0.213800000000     0          
Si       Si     0.575303333333     0.555536666667     0.919450000000     0          
Si       Si     0.424476666667     0.444296666667     0.080170000000     0          
Si       Si     0.646880000000     0.424683333333     0.855620000000     0          
Si       Si     0.353193333333     0.575483333333     0.144030000000     0          
Si       Si     0.366173333333     0.633826666667     0.931180000000     0          
Si       Si     0.633926666667     0.366073333333     0.068340000000     0          
Si       Si     0.622546666667     0.477940000000     0.568100000000     0          
Si       Si     0.378766666667     0.522716666667     0.431240000000     0          
Si       Si     0.374483333333     0.625516666667     0.827460000000     0          
Si       Si     0.625543333333     0.374456666667     0.172200000000     0          
Si       Si     0.514386666667     0.485613333333     0.827390000000     0          
Si       Si     0.485670000000     0.514330000000     0.171850000000     0          
Si       Si     0.486636666667     0.513363333333     0.779980000000     0          
Si       Si     0.513306666667     0.486693333333     0.219340000000     0          
Si       Si     0.597720000000     0.402280000000     0.280080000000     0          
Si       Si     0.402320000000     0.597680000000     0.719490000000     0          
Si       Si     0.444443333333     0.555556666667     0.467790000000     0          
Si       Si     0.444443333333     0.555556666667     0.103910000000     0          
Si       Si     0.555556666667     0.444443333333     0.894750000000     0          
Si       Si     0.555556666667     0.444443333333     0.830890000000     0          
Si       Si     0.444443333333     0.555556666667     0.167770000000     0          
Si       Si     0.333333333333     0.333333333333     0.967750000000     0          
Si       Si     0.333333333333     0.333333333333     0.031620000000     0          
Si       Si     0.333333333333     0.333333333333     0.894700000000     0          
Si       Si     0.333333333333     0.333333333333     0.104980000000     0          
Si       Si     0.333333333333     0.333333333333     0.830840000000     0          
Si       Si     0.333333333333     0.333333333333     0.168840000000     0          
O        O      0.626060000000     0.646363333333     0.957170000000     0          
O        O      0.333333333333     0.333333333333     0.999690000000     0          
O        O      0.373900000000     0.353616666667     0.042270000000     0          
O        O      0.535246666667     0.403826666667     0.957230000000     0          
O        O      0.444443333333     0.555556666667     0.499760000000     0          
O        O      0.466360000000     0.599386666667     0.041160000000     0          
O        O      0.347883333333     0.590943333333     0.930780000000     0          
O        O      0.353653333333     0.646346666667     0.905170000000     0          
O        O      0.652240000000     0.408943333333     0.068720000000     0          
O        O      0.646366666667     0.353633333333     0.094430000000     0          
O        O      0.647066666667     0.520793333333     0.569200000000     0          
O        O      0.596140000000     0.464736666667     0.593340000000     0          
O        O      0.354170000000     0.479830000000     0.430850000000     0          
O        O      0.403806666667     0.535236666667     0.405230000000     0          
O        O      0.611110000000     0.555553333333     0.928340000000     0          
O        O      0.573276666667     0.555470000000     0.887540000000     0          
O        O      0.389236666667     0.445140000000     0.070900000000     0          
O        O      0.425863333333     0.443986666667     0.112090000000     0          
O        O      0.333333333333     0.333333333333     0.862770000000     0          
O        O      0.333333333333     0.333333333333     0.136910000000     0          
O        O      0.555556666667     0.444443333333     0.862820000000     0          
O        O      0.444443333333     0.555556666667     0.135850000000     0          
O        O      0.626213333333     0.646440000000     0.820040000000     0          
O        O      0.373760000000     0.353546666667     0.179690000000     0          
O        O      0.535330000000     0.403993333333     0.820090000000     0          
O        O      0.464653333333     0.595973333333     0.178660000000     0          
O        O      0.611080000000     0.388920000000     0.846680000000     0          
O        O      0.348403333333     0.424543333333     0.844490000000     0          
O        O      0.646876666667     0.459570000000     0.844400000000     0          
O        O      0.389026666667     0.610973333333     0.153320000000     0          
O        O      0.651653333333     0.575580000000     0.155160000000     0          
O        O      0.352803333333     0.540246666667     0.154870000000     0          
O        O      0.385493333333     0.614506666667     0.800020000000     0          
O        O      0.614493333333     0.385506666667     0.199600000000     0          
O        O      0.503433333333     0.496566666667     0.799900000000     0          
O        O      0.496473333333     0.503526666667     0.199480000000     0          
O        O      0.493486666667     0.506513333333     0.749670000000     0          
O        O      0.505063333333     0.555530000000     0.785650000000     0          
O        O      0.555506666667     0.505073333333     0.213800000000     0          
O        O      0.604566666667     0.395433333333     0.249770000000     0          
Si       Si     0.353100000000     0.575303333333     0.419450000000     0          
Si       Si     0.646846666667     0.424476666667     0.580170000000     0          
Si       Si     0.555530000000     0.646880000000     0.355620000000     0          
Si       Si     0.444376666667     0.353193333333     0.644030000000     0          
Si       Si     0.399013333333     0.366173333333     0.431180000000     0          
Si       Si     0.601186666667     0.633926666667     0.568340000000     0          
Si       Si     0.477940000000     0.622546666667     0.068100000000     0          
Si       Si     0.522716666667     0.378766666667     0.931240000000     0          
Si       Si     0.415633333333     0.374483333333     0.327460000000     0          
Si       Si     0.584420000000     0.625543333333     0.672200000000     0          
Si       Si     0.362106666667     0.514386666667     0.327390000000     0          
Si       Si     0.638006666667     0.485670000000     0.671850000000     0          
Si       Si     0.639940000000     0.486636666667     0.279980000000     0          
Si       Si     0.359946666667     0.513306666667     0.719340000000     0          
Si       Si     0.528773333333     0.597720000000     0.780080000000     0          
Si       Si     0.471306666667     0.402320000000     0.219490000000     0          
Si       Si     0.555553333333     0.444443333333     0.967790000000     0          
Si       Si     0.555553333333     0.444443333333     0.603910000000     0          
Si       Si     0.444446666667     0.555556666667     0.394750000000     0          
Si       Si     0.444446666667     0.555556666667     0.330890000000     0          
Si       Si     0.555553333333     0.444443333333     0.667770000000     0          
Si       Si     0.333333333333     0.333333333333     0.467750000000     0          
Si       Si     0.333333333333     0.333333333333     0.531620000000     0          
Si       Si     0.333333333333     0.333333333333     0.394700000000     0          
Si       Si     0.333333333333     0.333333333333     0.604980000000     0          
Si       Si     0.333333333333     0.333333333333     0.330840000000     0          
Si       Si     0.333333333333     0.333333333333     0.668840000000     0          
O        O      0.646363333333     0.626060000000     0.457170000000     0          
O        O      0.333333333333     0.333333333333     0.499690000000     0          
O        O      0.353616666667     0.373900000000     0.542270000000     0          
O        O      0.464753333333     0.535246666667     0.457230000000     0          
O        O      0.555553333333     0.444443333333     0.999760000000     0          
O        O      0.533640000000     0.466360000000     0.541160000000     0          
O        O      0.423606666667     0.347883333333     0.430780000000     0          
O        O      0.373973333333     0.353653333333     0.405170000000     0          
O        O      0.576630000000     0.652240000000     0.568720000000     0          
O        O      0.626066666667     0.646366666667     0.594430000000     0          
O        O      0.459606666667     0.647066666667     0.069200000000     0          
O        O      0.464736666667     0.596140000000     0.093340000000     0          
O        O      0.541006666667     0.354170000000     0.930850000000     0          
O        O      0.535236666667     0.403806666667     0.905230000000     0          
O        O      0.388890000000     0.611110000000     0.428340000000     0          
O        O      0.351140000000     0.573276666667     0.387540000000     0          
O        O      0.610763333333     0.389236666667     0.570900000000     0          
O        O      0.648543333333     0.425863333333     0.612090000000     0          
O        O      0.333333333333     0.333333333333     0.362770000000     0          
O        O      0.333333333333     0.333333333333     0.636910000000     0          
O        O      0.444446666667     0.555556666667     0.362820000000     0          
O        O      0.555553333333     0.444443333333     0.635850000000     0          
O        O      0.646440000000     0.626213333333     0.320040000000     0          
O        O      0.353546666667     0.373760000000     0.679690000000     0          
O        O      0.464670000000     0.535330000000     0.320090000000     0          
O        O      0.535346666667     0.464653333333     0.678660000000     0          
O        O      0.555493333333     0.611080000000     0.346680000000     0          
O        O      0.590526666667     0.348403333333     0.344490000000     0          
O        O      0.520640000000     0.646876666667     0.344400000000     0          
O        O      0.444720000000     0.389026666667     0.653320000000     0          
O        O      0.409406666667     0.651653333333     0.655160000000     0          
O        O      0.479223333333     0.352803333333     0.654870000000     0          
O        O      0.437653333333     0.385493333333     0.300020000000     0          
O        O      0.562320000000     0.614493333333     0.699600000000     0          
O        O      0.340200000000     0.503433333333     0.299900000000     0          
O        O      0.659613333333     0.496473333333     0.699480000000     0          
O        O      0.653640000000     0.493486666667     0.249670000000     0          
O        O      0.616200000000     0.505063333333     0.285650000000     0          
O        O      0.383766666667     0.555506666667     0.713800000000     0          
O        O      0.542466666667     0.604566666667     0.749770000000     0          
Si       Si     0.444463333333     0.353100000000     0.919450000000     0          
Si       Si     0.555703333333     0.646846666667     0.080170000000     0          
Si       Si     0.575316666667     0.555530000000     0.855620000000     0          
Si       Si     0.424516666667     0.444376666667     0.144030000000     0          
Si       Si     0.366173333333     0.399013333333     0.931180000000     0          
Si       Si     0.633926666667     0.601186666667     0.068340000000     0          
Si       Si     0.522060000000     0.477940000000     0.568100000000     0          
Si       Si     0.477283333333     0.522716666667     0.431240000000     0          
Si       Si     0.374483333333     0.415633333333     0.827460000000     0          
Si       Si     0.625543333333     0.584420000000     0.172200000000     0          
Si       Si     0.514386666667     0.362106666667     0.827390000000     0          
Si       Si     0.485670000000     0.638006666667     0.171850000000     0          
Si       Si     0.486636666667     0.639940000000     0.779980000000     0          
Si       Si     0.513306666667     0.359946666667     0.219340000000     0          
Si       Si     0.597720000000     0.528773333333     0.280080000000     0          
Si       Si     0.402320000000     0.471306666667     0.719490000000     0          
O        O      0.353636666667     0.646363333333     0.957170000000     0          
O        O      0.646383333333     0.353616666667     0.042270000000     0          
O        O      0.596173333333     0.464753333333     0.957230000000     0          
O        O      0.400613333333     0.533640000000     0.041160000000     0          
O        O      0.409056666667     0.423606666667     0.930780000000     0          
O        O      0.353653333333     0.373973333333     0.905170000000     0          
O        O      0.591056666667     0.576630000000     0.068720000000     0          
O        O      0.646366666667     0.626066666667     0.094430000000     0          
O        O      0.479206666667     0.459606666667     0.569200000000     0          
O        O      0.535263333333     0.464736666667     0.593340000000     0          
O        O      0.520170000000     0.541006666667     0.430850000000     0          
O        O      0.464763333333     0.535236666667     0.405230000000     0          
O        O      0.444446666667     0.388890000000     0.928340000000     0          
O        O      0.444530000000     0.351140000000     0.887540000000     0          
O        O      0.554860000000     0.610763333333     0.070900000000     0          
O        O      0.556013333333     0.648543333333     0.112090000000     0          
O        O      0.353560000000     0.646440000000     0.820040000000     0          
O        O      0.646453333333     0.353546666667     0.179690000000     0          
O        O      0.596006666667     0.464670000000     0.820090000000     0          
O        O      0.404026666667     0.535346666667     0.178660000000     0          
O        O      0.611080000000     0.555493333333     0.846680000000     0          
O        O      0.575456666667     0.590526666667     0.844490000000     0          
O        O      0.540430000000     0.520640000000     0.844400000000     0          
O        O      0.389026666667     0.444720000000     0.153320000000     0          
O        O      0.424420000000     0.409406666667     0.155160000000     0          
O        O      0.459753333333     0.479223333333     0.154870000000     0          
O        O      0.385493333333     0.437653333333     0.800020000000     0          
O        O      0.614493333333     0.562320000000     0.199600000000     0          
O        O      0.503433333333     0.340200000000     0.799900000000     0          
O        O      0.496473333333     0.659613333333     0.199480000000     0          
O        O      0.493486666667     0.653640000000     0.749670000000     0          
O        O      0.444470000000     0.616200000000     0.785650000000     0          
O        O      0.494926666667     0.383766666667     0.213800000000     0          
O        O      0.604566666667     0.542466666667     0.249770000000     0          
Si       Si     0.424696666667     0.444463333333     0.419450000000     0          
Si       Si     0.575523333333     0.555703333333     0.580170000000     0          
Si       Si     0.353120000000     0.575316666667     0.355620000000     0          
Si       Si     0.646806666667     0.424516666667     0.644030000000     0          
Si       Si     0.633826666667     0.366173333333     0.431180000000     0          
Si       Si     0.366073333333     0.633926666667     0.568340000000     0          
Si       Si     0.377453333333     0.522060000000     0.068100000000     0          
Si       Si     0.621233333333     0.477283333333     0.931240000000     0          
Si       Si     0.625516666667     0.374483333333     0.327460000000     0          
Si       Si     0.374456666667     0.625543333333     0.672200000000     0          
Si       Si     0.485613333333     0.514386666667     0.327390000000     0          
Si       Si     0.514330000000     0.485670000000     0.671850000000     0          
Si       Si     0.513363333333     0.486636666667     0.279980000000     0          
Si       Si     0.486693333333     0.513306666667     0.719340000000     0          
Si       Si     0.402280000000     0.597720000000     0.780080000000     0          
Si       Si     0.597680000000     0.402320000000     0.219490000000     0          
O        O      0.373940000000     0.353636666667     0.457170000000     0          
O        O      0.626100000000     0.646383333333     0.542270000000     0          
O        O      0.464753333333     0.596173333333     0.457230000000     0          
O        O      0.533640000000     0.400613333333     0.541160000000     0          
O        O      0.652116666667     0.409056666667     0.430780000000     0          
O        O      0.646346666667     0.353653333333     0.405170000000     0          
O        O      0.347760000000     0.591056666667     0.568720000000     0          
O        O      0.353633333333     0.646366666667     0.594430000000     0          
O        O      0.352933333333     0.479206666667     0.069200000000     0          
O        O      0.403860000000     0.535263333333     0.093340000000     0          
O        O      0.645830000000     0.520170000000     0.930850000000     0          
O        O      0.596193333333     0.464763333333     0.905230000000     0          
O        O      0.388890000000     0.444446666667     0.428340000000     0          
O        O      0.426723333333     0.444530000000     0.387540000000     0          
O        O      0.610763333333     0.554860000000     0.570900000000     0          
O        O      0.574136666667     0.556013333333     0.612090000000     0          
O        O      0.373786666667     0.353560000000     0.320040000000     0          
O        O      0.626240000000     0.646453333333     0.679690000000     0          
O        O      0.464670000000     0.596006666667     0.320090000000     0          
O        O      0.535346666667     0.404026666667     0.678660000000     0          
O        O      0.388920000000     0.611080000000     0.346680000000     0          
O        O      0.651596666667     0.575456666667     0.344490000000     0          
O        O      0.353123333333     0.540430000000     0.344400000000     0          
O        O      0.610973333333     0.389026666667     0.653320000000     0          
O        O      0.348346666667     0.424420000000     0.655160000000     0          
O        O      0.647196666667     0.459753333333     0.654870000000     0          
O        O      0.614506666667     0.385493333333     0.300020000000     0          
O        O      0.385506666667     0.614493333333     0.699600000000     0          
O        O      0.496566666667     0.503433333333     0.299900000000     0          
O        O      0.503526666667     0.496473333333     0.699480000000     0          
O        O      0.506513333333     0.493486666667     0.249670000000     0          
O        O      0.494936666667     0.444470000000     0.285650000000     0          
O        O      0.444493333333     0.494926666667     0.713800000000     0          
O        O      0.395433333333     0.604566666667     0.749770000000     0          
Si       Si     0.646900000000     0.424696666667     0.919450000000     0          
Si       Si     0.353153333333     0.575523333333     0.080170000000     0          
Si       Si     0.444470000000     0.353120000000     0.855620000000     0          
Si       Si     0.555623333333     0.646806666667     0.144030000000     0          
Si       Si     0.600986666667     0.633826666667     0.931180000000     0          
Si       Si     0.398813333333     0.366073333333     0.068340000000     0          
Si       Si     0.522060000000     0.377453333333     0.568100000000     0          
Si       Si     0.477283333333     0.621233333333     0.431240000000     0          
Si       Si     0.584366666667     0.625516666667     0.827460000000     0          
Si       Si     0.415580000000     0.374456666667     0.172200000000     0          
Si       Si     0.637893333333     0.485613333333     0.827390000000     0          
Si       Si     0.361993333333     0.514330000000     0.171850000000     0          
Si       Si     0.360060000000     0.513363333333     0.779980000000     0          
Si       Si     0.640053333333     0.486693333333     0.219340000000     0          
Si       Si     0.471226666667     0.402280000000     0.280080000000     0          
Si       Si     0.528693333333     0.597680000000     0.719490000000     0          
O        O      0.353636666667     0.373940000000     0.957170000000     0          
O        O      0.646383333333     0.626100000000     0.042270000000     0          
O        O      0.535246666667     0.464753333333     0.957230000000     0          
O        O      0.466360000000     0.533640000000     0.041160000000     0          
O        O      0.576393333333     0.652116666667     0.930780000000     0          
O        O      0.626026666667     0.646346666667     0.905170000000     0          
O        O      0.423370000000     0.347760000000     0.068720000000     0          
O        O      0.373933333333     0.353633333333     0.094430000000     0          
O        O      0.540393333333     0.352933333333     0.569200000000     0          
O        O      0.535263333333     0.403860000000     0.593340000000     0          
O        O      0.458993333333     0.645830000000     0.430850000000     0          
O        O      0.464763333333     0.596193333333     0.405230000000     0          
O        O      0.611110000000     0.388890000000     0.928340000000     0          
O        O      0.648860000000     0.426723333333     0.887540000000     0          
O        O      0.389236666667     0.610763333333     0.070900000000     0          
O        O      0.351456666667     0.574136666667     0.112090000000     0          
O        O      0.353560000000     0.373786666667     0.820040000000     0          
O        O      0.646453333333     0.626240000000     0.179690000000     0          
O        O      0.535330000000     0.464670000000     0.820090000000     0          
O        O      0.464653333333     0.535346666667     0.178660000000     0          
O        O      0.444506666667     0.388920000000     0.846680000000     0          
O        O      0.409473333333     0.651596666667     0.844490000000     0          
O        O      0.479360000000     0.353123333333     0.844400000000     0          
O        O      0.555280000000     0.610973333333     0.153320000000     0          
O        O      0.590593333333     0.348346666667     0.155160000000     0          
O        O      0.520776666667     0.647196666667     0.154870000000     0          
O        O      0.562346666667     0.614506666667     0.800020000000     0          
O        O      0.437680000000     0.385506666667     0.199600000000     0          
O        O      0.659800000000     0.496566666667     0.799900000000     0          
O        O      0.340386666667     0.503526666667     0.199480000000     0          
O        O      0.346360000000     0.506513333333     0.749670000000     0          
O        O      0.383800000000     0.494936666667     0.785650000000     0          
O        O      0.616233333333     0.444493333333     0.213800000000     0          
O        O      0.457533333333     0.395433333333     0.249770000000     0          
Si       Si     0.555536666667     0.646900000000     0.419450000000     0          
Si       Si     0.444296666667     0.353153333333     0.580170000000     0          
Si       Si     0.424683333333     0.444470000000     0.355620000000     0          
Si       Si     0.575483333333     0.555623333333     0.644030000000     0          
Si       Si     0.633826666667     0.600986666667     0.431180000000     0          
Si       Si     0.366073333333     0.398813333333     0.568340000000     0          
Si       Si     0.477940000000     0.522060000000     0.068100000000     0          
Si       Si     0.522716666667     0.477283333333     0.931240000000     0          
Si       Si     0.625516666667     0.584366666667     0.327460000000     0          
Si       Si     0.374456666667     0.415580000000     0.672200000000     0          
Si       Si     0.485613333333     0.637893333333     0.327390000000     0          
Si       Si     0.514330000000     0.361993333333     0.671850000000     0          
Si       Si     0.513363333333     0.360060000000     0.279980000000     0          
Si       Si     0.486693333333     0.640053333333     0.719340000000     0          
Si       Si     0.402280000000     0.471226666667     0.780080000000     0          
Si       Si     0.597680000000     0.528693333333     0.219490000000     0          
O        O      0.646363333333     0.353636666667     0.457170000000     0          
O        O      0.353616666667     0.646383333333     0.542270000000     0          
O        O      0.403826666667     0.535246666667     0.457230000000     0          
O        O      0.599386666667     0.466360000000     0.541160000000     0          
O        O      0.590943333333     0.576393333333     0.430780000000     0          
O        O      0.646346666667     0.626026666667     0.405170000000     0          
O        O      0.408943333333     0.423370000000     0.568720000000     0          
O        O      0.353633333333     0.373933333333     0.594430000000     0          
O        O      0.520793333333     0.540393333333     0.069200000000     0          
O        O      0.464736666667     0.535263333333     0.093340000000     0          
O        O      0.479830000000     0.458993333333     0.930850000000     0          
O        O      0.535236666667     0.464763333333     0.905230000000     0          
O        O      0.555553333333     0.611110000000     0.428340000000     0          
O        O      0.555470000000     0.648860000000     0.387540000000     0          
O        O      0.445140000000     0.389236666667     0.570900000000     0          
O        O      0.443986666667     0.351456666667     0.612090000000     0          
O        O      0.646440000000     0.353560000000     0.320040000000     0          
O        O      0.353546666667     0.646453333333     0.679690000000     0          
O        O      0.403993333333     0.535330000000     0.320090000000     0          
O        O      0.595973333333     0.464653333333     0.678660000000     0          
O        O      0.388920000000     0.444506666667     0.346680000000     0          
O        O      0.424543333333     0.409473333333     0.344490000000     0          
O        O      0.459570000000     0.479360000000     0.344400000000     0          
O        O      0.610973333333     0.555280000000     0.653320000000     0          
O        O      0.575580000000     0.590593333333     0.655160000000     0          
O        O      0.540246666667     0.520776666667     0.654870000000     0          
O        O      0.614506666667     0.562346666667     0.300020000000     0          
O        O      0.385506666667     0.437680000000     0.699600000000     0          
O        O      0.496566666667     0.659800000000     0.299900000000     0          
O        O      0.503526666667     0.340386666667     0.699480000000     0          
O        O      0.506513333333     0.346360000000     0.249670000000     0          
O        O      0.555530000000     0.383800000000     0.285650000000     0          
O        O      0.505073333333     0.616233333333     0.713800000000     0          
O        O      0.395433333333     0.457533333333     0.749770000000     0          
Si       Si     0.555536666667     0.575303333333     0.419450000000     0          
Si       Si     0.444296666667     0.424476666667     0.580170000000     0          
Si       Si     0.424683333333     0.646880000000     0.355620000000     0          
Si       Si     0.575483333333     0.353193333333     0.644030000000     0          
O        O      0.590943333333     0.347883333333     0.430780000000     0          
O        O      0.408943333333     0.652240000000     0.568720000000     0          
O        O      0.520793333333     0.647066666667     0.069200000000     0          
O        O      0.479830000000     0.354170000000     0.930850000000     0          
O        O      0.555470000000     0.573276666667     0.387540000000     0          
O        O      0.443986666667     0.425863333333     0.612090000000     0          
O        O      0.424543333333     0.348403333333     0.344490000000     0          
O        O      0.459570000000     0.646876666667     0.344400000000     0          
O        O      0.575580000000     0.651653333333     0.655160000000     0          
O        O      0.540246666667     0.352803333333     0.654870000000     0          
O        O      0.555530000000     0.505063333333     0.285650000000     0          
O        O      0.505073333333     0.555506666667     0.713800000000     0          
Si       Si     0.646900000000     0.555536666667     0.919450000000     0          
Si       Si     0.353153333333     0.444296666667     0.080170000000     0          
Si       Si     0.444470000000     0.424683333333     0.855620000000     0          
Si       Si     0.555623333333     0.575483333333     0.144030000000     0          
O        O      0.576393333333     0.590943333333     0.930780000000     0          
O        O      0.423370000000     0.408943333333     0.068720000000     0          
O        O      0.540393333333     0.520793333333     0.569200000000     0          
O        O      0.458993333333     0.479830000000     0.430850000000     0          
O        O      0.648860000000     0.555470000000     0.887540000000     0          
O        O      0.351456666667     0.443986666667     0.112090000000     0          
O        O      0.409473333333     0.424543333333     0.844490000000     0          
O        O      0.479360000000     0.459570000000     0.844400000000     0          
O        O      0.590593333333     0.575580000000     0.155160000000     0          
O        O      0.520776666667     0.540246666667     0.154870000000     0          
O        O      0.383800000000     0.555530000000     0.785650000000     0          
O        O      0.616233333333     0.505073333333     0.213800000000     0          
Si       Si     0.424696666667     0.646900000000     0.419450000000     0          
Si       Si     0.575523333333     0.353153333333     0.580170000000     0          
Si       Si     0.353120000000     0.444470000000     0.355620000000     0          
Si       Si     0.646806666667     0.555623333333     0.644030000000     0          
O        O      0.652116666667     0.576393333333     0.430780000000     0          
O        O      0.347760000000     0.423370000000     0.568720000000     0          
O        O      0.352933333333     0.540393333333     0.069200000000     0          
O        O      0.645830000000     0.458993333333     0.930850000000     0          
O        O      0.426723333333     0.648860000000     0.387540000000     0          
O        O      0.574136666667     0.351456666667     0.612090000000     0          
O        O      0.651596666667     0.409473333333     0.344490000000     0          
O        O      0.353123333333     0.479360000000     0.344400000000     0          
O        O      0.348346666667     0.590593333333     0.655160000000     0          
O        O      0.647196666667     0.520776666667     0.654870000000     0          
O        O      0.494936666667     0.383800000000     0.285650000000     0          
O        O      0.444493333333     0.616233333333     0.713800000000     0          
Si       Si     0.444463333333     0.424696666667     0.919450000000     0          
Si       Si     0.555703333333     0.575523333333     0.080170000000     0          
Si       Si     0.575316666667     0.353120000000     0.855620000000     0          
Si       Si     0.424516666667     0.646806666667     0.144030000000     0          
O        O      0.409056666667     0.652116666667     0.930780000000     0          
O        O      0.591056666667     0.347760000000     0.068720000000     0          
O        O      0.479206666667     0.352933333333     0.569200000000     0          
O        O      0.520170000000     0.645830000000     0.430850000000     0          
O        O      0.444530000000     0.426723333333     0.887540000000     0          
O        O      0.556013333333     0.574136666667     0.112090000000     0          
O        O      0.575456666667     0.651596666667     0.844490000000     0          
O        O      0.540430000000     0.353123333333     0.844400000000     0          
O        O      0.424420000000     0.348346666667     0.155160000000     0          
O        O      0.459753333333     0.647196666667     0.154870000000     0          
O        O      0.444470000000     0.494936666667     0.785650000000     0          
O        O      0.494926666667     0.444493333333     0.213800000000     0          
Si       Si     0.353100000000     0.444463333333     0.419450000000     0          
Si       Si     0.646846666667     0.555703333333     0.580170000000     0          
Si       Si     0.555530000000     0.575316666667     0.355620000000     0          
Si       Si     0.444376666667     0.424516666667     0.644030000000     0          
O        O      0.423606666667     0.409056666667     0.430780000000     0          
O        O      0.576630000000     0.591056666667     0.568720000000     0          
O        O      0.459606666667     0.479206666667     0.069200000000     0          
O        O      0.541006666667     0.520170000000     0.930850000000     0          
O        O      0.351140000000     0.444530000000     0.387540000000     0          
O        O      0.648543333333     0.556013333333     0.612090000000     0          
O        O      0.590526666667     0.575456666667     0.344490000000     0          
O        O      0.520640000000     0.540430000000     0.344400000000     0          
O        O      0.409406666667     0.424420000000     0.655160000000     0          
O        O      0.479223333333     0.459753333333     0.654870000000     0          
O        O      0.616200000000     0.444470000000     0.285650000000     0          
O        O      0.383766666667     0.494926666667     0.713800000000     0          
Si       Si     0.575303333333     0.353100000000     0.919450000000     0          
Si       Si     0.424476666667     0.646846666667     0.080170000000     0          
Si       Si     0.646880000000     0.555530000000     0.855620000000     0          
Si       Si     0.353193333333     0.444376666667     0.144030000000     0          
O        O      0.347883333333     0.423606666667     0.930780000000     0          
O        O      0.652240000000     0.576630000000     0.068720000000     0          
O        O      0.647066666667     0.459606666667     0.569200000000     0          
O        O      0.354170000000     0.541006666667     0.430850000000     0          
O        O      0.573276666667     0.351140000000     0.887540000000     0          
O        O      0.425863333333     0.648543333333     0.112090000000     0          
O        O      0.348403333333     0.590526666667     0.844490000000     0          
O        O      0.646876666667     0.520640000000     0.844400000000     0          
O        O      0.651653333333     0.409406666667     0.155160000000     0          
O        O      0.352803333333     0.479223333333     0.154870000000     0          
O        O      0.505063333333     0.616200000000     0.785650000000     0          
O        O      0.555506666667     0.383766666667     0.213800000000     0          
Si       Si     0.575303333333     0.888870000000     0.919450000000     0          
Si       Si     0.424476666667     0.777630000000     0.080170000000     0          
Si       Si     0.646880000000     0.758016666667     0.855620000000     0          
Si       Si     0.353193333333     0.908816666667     0.144030000000     0          
Si       Si     0.366173333333     0.967160000000     0.931180000000     0          
Si       Si     0.633926666667     0.699406666667     0.068340000000     0          
Si       Si     0.622546666667     0.811273333333     0.568100000000     0          
Si       Si     0.378766666667     0.856050000000     0.431240000000     0          
Si       Si     0.374483333333     0.958850000000     0.827460000000     0          
Si       Si     0.625543333333     0.707790000000     0.172200000000     0          
Si       Si     0.514386666667     0.818946666667     0.827390000000     0          
Si       Si     0.485670000000     0.847663333333     0.171850000000     0          
Si       Si     0.486636666667     0.846696666667     0.779980000000     0          
Si       Si     0.513306666667     0.820026666667     0.219340000000     0          
Si       Si     0.597720000000     0.735613333333     0.280080000000     0          
Si       Si     0.402320000000     0.931013333333     0.719490000000     0          
Si       Si     0.444443333333     0.888890000000     0.467790000000     0          
Si       Si     0.444443333333     0.888890000000     0.103910000000     0          
Si       Si     0.555556666667     0.777776666667     0.894750000000     0          
Si       Si     0.555556666667     0.777776666667     0.830890000000     0          
Si       Si     0.444443333333     0.888890000000     0.167770000000     0          
Si       Si     0.333333333333     0.666666666667     0.967750000000     0          
Si       Si     0.333333333333     0.666666666667     0.031620000000     0          
Si       Si     0.333333333333     0.666666666667     0.894700000000     0          
Si       Si     0.333333333333     0.666666666667     0.104980000000     0          
Si       Si     0.333333333333     0.666666666667     0.830840000000     0          
Si       Si     0.333333333333     0.666666666667     0.168840000000     0          
O        O      0.626060000000     0.979696666667     0.957170000000     0          
O        O      0.333333333333     0.666666666667     0.999690000000     0          
O        O      0.373900000000     0.686950000000     0.042270000000     0          
O        O      0.535246666667     0.737160000000     0.957230000000     0          
O        O      0.444443333333     0.888890000000     0.499760000000     0          
O        O      0.466360000000     0.932720000000     0.041160000000     0          
O        O      0.347883333333     0.924276666667     0.930780000000     0          
O        O      0.353653333333     0.979680000000     0.905170000000     0          
O        O      0.652240000000     0.742276666667     0.068720000000     0          
O        O      0.646366666667     0.686966666667     0.094430000000     0          
O        O      0.647066666667     0.854126666667     0.569200000000     0          
O        O      0.596140000000     0.798070000000     0.593340000000     0          
O        O      0.354170000000     0.813163333333     0.430850000000     0          
O        O      0.403806666667     0.868570000000     0.405230000000     0          
O        O      0.611110000000     0.888886666667     0.928340000000     0          
O        O      0.573276666667     0.888803333333     0.887540000000     0          
O        O      0.389236666667     0.778473333333     0.070900000000     0          
O        O      0.425863333333     0.777320000000     0.112090000000     0          
O        O      0.333333333333     0.666666666667     0.862770000000     0          
O        O      0.333333333333     0.666666666667     0.136910000000     0          
O        O      0.555556666667     0.777776666667     0.862820000000     0          
O        O      0.444443333333     0.888890000000     0.135850000000     0          
O        O      0.626213333333     0.979773333333     0.820040000000     0          
O        O      0.373760000000     0.686880000000     0.179690000000     0          
O        O      0.535330000000     0.737326666667     0.820090000000     0          
O        O      0.464653333333     0.929306666667     0.178660000000     0          
O        O      0.611080000000     0.722253333333     0.846680000000     0          
O        O      0.348403333333     0.757876666667     0.844490000000     0          
O        O      0.646876666667     0.792903333333     0.844400000000     0          
O        O      0.389026666667     0.944306666667     0.153320000000     0          
O        O      0.651653333333     0.908913333333     0.155160000000     0          
O        O      0.352803333333     0.873580000000     0.154870000000     0          
O        O      0.385493333333     0.947840000000     0.800020000000     0          
O        O      0.614493333333     0.718840000000     0.199600000000     0          
O        O      0.503433333333     0.829900000000     0.799900000000     0          
O        O      0.496473333333     0.836860000000     0.199480000000     0          
O        O      0.493486666667     0.839846666667     0.749670000000     0          
O        O      0.505063333333     0.888863333333     0.785650000000     0          
O        O      0.555506666667     0.838406666667     0.213800000000     0          
O        O      0.604566666667     0.728766666667     0.249770000000     0          
Si       Si     0.353100000000     0.908636666667     0.419450000000     0          
Si       Si     0.646846666667     0.757810000000     0.580170000000     0          
Si       Si     0.555530000000     0.980213333333     0.355620000000     0          
Si       Si     0.444376666667     0.686526666667     0.644030000000     0          
Si       Si     0.399013333333     0.699506666667     0.431180000000     0          
Si       Si     0.601186666667     0.967260000000     0.568340000000     0          
Si       Si     0.477940000000     0.955880000000     0.068100000000     0          
Si       Si     0.522716666667     0.712100000000     0.931240000000     0          
Si       Si     0.415633333333     0.707816666667     0.327460000000     0          
Si       Si     0.584420000000     0.958876666667     0.672200000000     0          
Si       Si     0.362106666667     0.847720000000     0.327390000000     0          
Si       Si     0.638006666667     0.819003333333     0.671850000000     0          
Si       Si     0.639940000000     0.819970000000     0.279980000000     0          
Si       Si     0.359946666667     0.846640000000     0.719340000000     0          
Si       Si     0.528773333333     0.931053333333     0.780080000000     0          
Si       Si     0.471306666667     0.735653333333     0.219490000000     0          
Si       Si     0.555553333333     0.777776666667     0.967790000000     0          
Si       Si     0.555553333333     0.777776666667     0.603910000000     0          
Si       Si     0.444446666667     0.888890000000     0.394750000000     0          
Si       Si     0.444446666667     0.888890000000     0.330890000000     0          
Si       Si     0.555553333333     0.777776666667     0.667770000000     0          
Si       Si     0.333333333333     0.666666666667     0.467750000000     0          
Si       Si     0.333333333333     0.666666666667     0.531620000000     0          
Si       Si     0.333333333333     0.666666666667     0.394700000000     0          
Si       Si     0.333333333333     0.666666666667     0.604980000000     0          
Si       Si     0.333333333333     0.666666666667     0.330840000000     0          
Si       Si     0.333333333333     0.666666666667     0.668840000000     0          
O        O      0.646363333333     0.959393333333     0.457170000000     0          
O        O      0.333333333333     0.666666666667     0.499690000000     0          
O        O      0.353616666667     0.707233333333     0.542270000000     0          
O        O      0.464753333333     0.868580000000     0.457230000000     0          
O        O      0.555553333333     0.777776666667     0.999760000000     0          
O        O      0.533640000000     0.799693333333     0.541160000000     0          
O        O      0.423606666667     0.681216666667     0.430780000000     0          
O        O      0.373973333333     0.686986666667     0.405170000000     0          
O        O      0.576630000000     0.985573333333     0.568720000000     0          
O        O      0.626066666667     0.979700000000     0.594430000000     0          
O        O      0.459606666667     0.980400000000     0.069200000000     0          
O        O      0.464736666667     0.929473333333     0.093340000000     0          
O        O      0.541006666667     0.687503333333     0.930850000000     0          
O        O      0.535236666667     0.737140000000     0.905230000000     0          
O        O      0.388890000000     0.944443333333     0.428340000000     0          
O        O      0.351140000000     0.906610000000     0.387540000000     0          
O        O      0.610763333333     0.722570000000     0.570900000000     0          
O        O      0.648543333333     0.759196666667     0.612090000000     0          
O        O      0.333333333333     0.666666666667     0.362770000000     0          
O        O      0.333333333333     0.666666666667     0.636910000000     0          
O        O      0.444446666667     0.888890000000     0.362820000000     0          
O        O      0.555553333333     0.777776666667     0.635850000000     0          
O        O      0.646440000000     0.959546666667     0.320040000000     0          
O        O      0.353546666667     0.707093333333     0.679690000000     0          
O        O      0.464670000000     0.868663333333     0.320090000000     0          
O        O      0.535346666667     0.797986666667     0.678660000000     0          
O        O      0.555493333333     0.944413333333     0.346680000000     0          
O        O      0.590526666667     0.681736666667     0.344490000000     0          
O        O      0.520640000000     0.980210000000     0.344400000000     0          
O        O      0.444720000000     0.722360000000     0.653320000000     0          
O        O      0.409406666667     0.984986666667     0.655160000000     0          
O        O      0.479223333333     0.686136666667     0.654870000000     0          
O        O      0.437653333333     0.718826666667     0.300020000000     0          
O        O      0.562320000000     0.947826666667     0.699600000000     0          
O        O      0.340200000000     0.836766666667     0.299900000000     0          
O        O      0.659613333333     0.829806666667     0.699480000000     0          
O        O      0.653640000000     0.826820000000     0.249670000000     0          
O        O      0.616200000000     0.838396666667     0.285650000000     0          
O        O      0.383766666667     0.888840000000     0.713800000000     0          
O        O      0.542466666667     0.937900000000     0.749770000000     0          
Si       Si     0.444463333333     0.686433333333     0.919450000000     0          
Si       Si     0.555703333333     0.980180000000     0.080170000000     0          
Si       Si     0.575316666667     0.888863333333     0.855620000000     0          
Si       Si     0.424516666667     0.777710000000     0.144030000000     0          
Si       Si     0.366173333333     0.732346666667     0.931180000000     0          
Si       Si     0.633926666667     0.934520000000     0.068340000000     0          
Si       Si     0.522060000000     0.811273333333     0.568100000000     0          
Si       Si     0.477283333333     0.856050000000     0.431240000000     0          
Si       Si     0.374483333333     0.748966666667     0.827460000000     0          
Si       Si     0.625543333333     0.917753333333     0.172200000000     0          
Si       Si     0.514386666667     0.695440000000     0.827390000000     0          
Si       Si     0.485670000000     0.971340000000     0.171850000000     0          
Si       Si     0.486636666667     0.973273333333     0.779980000000     0          
Si       Si     0.513306666667     0.693280000000     0.219340000000     0          
Si       Si     0.597720000000     0.862106666667     0.280080000000     0          
Si       Si     0.402320000000     0.804640000000     0.719490000000     0          
O        O      0.353636666667     0.979696666667     0.957170000000     0          
O        O      0.646383333333     0.686950000000     0.042270000000     0          
O        O      0.596173333333     0.798086666667     0.957230000000     0          
O        O      0.400613333333     0.866973333333     0.041160000000     0          
O        O      0.409056666667     0.756940000000     0.930780000000     0          
O        O      0.353653333333     0.707306666667     0.905170000000     0          
O        O      0.591056666667     0.909963333333     0.068720000000     0          
O        O      0.646366666667     0.959400000000     0.094430000000     0          
O        O      0.479206666667     0.792940000000     0.569200000000     0          
O        O      0.535263333333     0.798070000000     0.593340000000     0          
O        O      0.520170000000     0.874340000000     0.430850000000     0          
O        O      0.464763333333     0.868570000000     0.405230000000     0          
O        O      0.444446666667     0.722223333333     0.928340000000     0          
O        O      0.444530000000     0.684473333333     0.887540000000     0          
O        O      0.554860000000     0.944096666667     0.070900000000     0          
O        O      0.556013333333     0.981876666667     0.112090000000     0          
O        O      0.353560000000     0.979773333333     0.820040000000     0          
O        O      0.646453333333     0.686880000000     0.179690000000     0          
O        O      0.596006666667     0.798003333333     0.820090000000     0          
O        O      0.404026666667     0.868680000000     0.178660000000     0          
O        O      0.611080000000     0.888826666667     0.846680000000     0          
O        O      0.575456666667     0.923860000000     0.844490000000     0          
O        O      0.540430000000     0.853973333333     0.844400000000     0          
O        O      0.389026666667     0.778053333333     0.153320000000     0          
O        O      0.424420000000     0.742740000000     0.155160000000     0          
O        O      0.459753333333     0.812556666667     0.154870000000     0          
O        O      0.385493333333     0.770986666667     0.800020000000     0          
O        O      0.614493333333     0.895653333333     0.199600000000     0          
O        O      0.503433333333     0.673533333333     0.799900000000     0          
O        O      0.496473333333     0.992946666667     0.199480000000     0          
O        O      0.493486666667     0.986973333333     0.749670000000     0          
O        O      0.444470000000     0.949533333333     0.785650000000     0          
O        O      0.494926666667     0.717100000000     0.213800000000     0          
O        O      0.604566666667     0.875800000000     0.249770000000     0          
Si       Si     0.424696666667     0.777796666667     0.419450000000     0          
Si       Si     0.575523333333     0.889036666667     0.580170000000     0          
Si       Si     0.353120000000     0.908650000000     0.355620000000     0          
Si       Si     0.646806666667     0.757850000000     0.644030000000     0          
Si       Si     0.633826666667     0.699506666667     0.431180000000     0          
Si       Si     0.366073333333     0.967260000000     0.568340000000     0          
Si       Si     0.377453333333     0.855393333333     0.068100000000     0          
Si       Si     0.621233333333     0.810616666667     0.931240000000     0          
Si       Si     0.625516666667     0.707816666667     0.327460000000     0          
Si       Si     0.374456666667     0.958876666667     0.672200000000     0          
Si       Si     0.485613333333     0.847720000000     0.327390000000     0          
Si       Si     0.514330000000     0.819003333333     0.671850000000     0          
Si       Si     0.513363333333     0.819970000000     0.279980000000     0          
Si       Si     0.486693333333     0.846640000000     0.719340000000     0          
Si       Si     0.402280000000     0.931053333333     0.780080000000     0          
Si       Si     0.597680000000     0.735653333333     0.219490000000     0          
O        O      0.373940000000     0.686970000000     0.457170000000     0          
O        O      0.626100000000     0.979716666667     0.542270000000     0          
O        O      0.464753333333     0.929506666667     0.457230000000     0          
O        O      0.533640000000     0.733946666667     0.541160000000     0          
O        O      0.652116666667     0.742390000000     0.430780000000     0          
O        O      0.646346666667     0.686986666667     0.405170000000     0          
O        O      0.347760000000     0.924390000000     0.568720000000     0          
O        O      0.353633333333     0.979700000000     0.594430000000     0          
O        O      0.352933333333     0.812540000000     0.069200000000     0          
O        O      0.403860000000     0.868596666667     0.093340000000     0          
O        O      0.645830000000     0.853503333333     0.930850000000     0          
O        O      0.596193333333     0.798096666667     0.905230000000     0          
O        O      0.388890000000     0.777780000000     0.428340000000     0          
O        O      0.426723333333     0.777863333333     0.387540000000     0          
O        O      0.610763333333     0.888193333333     0.570900000000     0          
O        O      0.574136666667     0.889346666667     0.612090000000     0          
O        O      0.373786666667     0.686893333333     0.320040000000     0          
O        O      0.626240000000     0.979786666667     0.679690000000     0          
O        O      0.464670000000     0.929340000000     0.320090000000     0          
O        O      0.535346666667     0.737360000000     0.678660000000     0          
O        O      0.388920000000     0.944413333333     0.346680000000     0          
O        O      0.651596666667     0.908790000000     0.344490000000     0          
O        O      0.353123333333     0.873763333333     0.344400000000     0          
O        O      0.610973333333     0.722360000000     0.653320000000     0          
O        O      0.348346666667     0.757753333333     0.655160000000     0          
O        O      0.647196666667     0.793086666667     0.654870000000     0          
O        O      0.614506666667     0.718826666667     0.300020000000     0          
O        O      0.385506666667     0.947826666667     0.699600000000     0          
O        O      0.496566666667     0.836766666667     0.299900000000     0          
O        O      0.503526666667     0.829806666667     0.699480000000     0          
O        O      0.506513333333     0.826820000000     0.249670000000     0          
O        O      0.494936666667     0.777803333333     0.285650000000     0          
O        O      0.444493333333     0.828260000000     0.713800000000     0          
O        O      0.395433333333     0.937900000000     0.749770000000     0          
Si       Si     0.646900000000     0.758030000000     0.919450000000     0          
Si       Si     0.353153333333     0.908856666667     0.080170000000     0          
Si       Si     0.444470000000     0.686453333333     0.855620000000     0          
Si       Si     0.555623333333     0.980140000000     0.144030000000     0          
Si       Si     0.600986666667     0.967160000000     0.931180000000     0          
Si       Si     0.398813333333     0.699406666667     0.068340000000     0          
Si       Si     0.522060000000     0.710786666667     0.568100000000     0          
Si       Si     0.477283333333     0.954566666667     0.431240000000     0          
Si       Si     0.584366666667     0.958850000000     0.827460000000     0          
Si       Si     0.415580000000     0.707790000000     0.172200000000     0          
Si       Si     0.637893333333     0.818946666667     0.827390000000     0          
Si       Si     0.361993333333     0.847663333333     0.171850000000     0          
Si       Si     0.360060000000     0.846696666667     0.779980000000     0          
Si       Si     0.640053333333     0.820026666667     0.219340000000     0          
Si       Si     0.471226666667     0.735613333333     0.280080000000     0          
Si       Si     0.528693333333     0.931013333333     0.719490000000     0          
O        O      0.353636666667     0.707273333333     0.957170000000     0          
O        O      0.646383333333     0.959433333333     0.042270000000     0          
O        O      0.535246666667     0.798086666667     0.957230000000     0          
O        O      0.466360000000     0.866973333333     0.041160000000     0          
O        O      0.576393333333     0.985450000000     0.930780000000     0          
O        O      0.626026666667     0.979680000000     0.905170000000     0          
O        O      0.423370000000     0.681093333333     0.068720000000     0          
O        O      0.373933333333     0.686966666667     0.094430000000     0          
O        O      0.540393333333     0.686266666667     0.569200000000     0          
O        O      0.535263333333     0.737193333333     0.593340000000     0          
O        O      0.458993333333     0.979163333333     0.430850000000     0          
O        O      0.464763333333     0.929526666667     0.405230000000     0          
O        O      0.611110000000     0.722223333333     0.928340000000     0          
O        O      0.648860000000     0.760056666667     0.887540000000     0          
O        O      0.389236666667     0.944096666667     0.070900000000     0          
O        O      0.351456666667     0.907470000000     0.112090000000     0          
O        O      0.353560000000     0.707120000000     0.820040000000     0          
O        O      0.646453333333     0.959573333333     0.179690000000     0          
O        O      0.535330000000     0.798003333333     0.820090000000     0          
O        O      0.464653333333     0.868680000000     0.178660000000     0          
O        O      0.444506666667     0.722253333333     0.846680000000     0          
O        O      0.409473333333     0.984930000000     0.844490000000     0          
O        O      0.479360000000     0.686456666667     0.844400000000     0          
O        O      0.555280000000     0.944306666667     0.153320000000     0          
O        O      0.590593333333     0.681680000000     0.155160000000     0          
O        O      0.520776666667     0.980530000000     0.154870000000     0          
O        O      0.562346666667     0.947840000000     0.800020000000     0          
O        O      0.437680000000     0.718840000000     0.199600000000     0          
O        O      0.659800000000     0.829900000000     0.799900000000     0          
O        O      0.340386666667     0.836860000000     0.199480000000     0          
O        O      0.346360000000     0.839846666667     0.749670000000     0          
O        O      0.383800000000     0.828270000000     0.785650000000     0          
O        O      0.616233333333     0.777826666667     0.213800000000     0          
O        O      0.457533333333     0.728766666667     0.249770000000     0          
Si       Si     0.555536666667     0.980233333333     0.419450000000     0          
Si       Si     0.444296666667     0.686486666667     0.580170000000     0          
Si       Si     0.424683333333     0.777803333333     0.355620000000     0          
Si       Si     0.575483333333     0.888956666667     0.644030000000     0          
Si       Si     0.633826666667     0.934320000000     0.431180000000     0          
Si       Si     0.366073333333     0.732146666667     0.568340000000     0          
Si       Si     0.477940000000     0.855393333333     0.068100000000     0          
Si       Si     0.522716666667     0.810616666667     0.931240000000     0          
Si       Si     0.625516666667     0.917700000000     0.327460000000     0          
Si       Si     0.374456666667     0.748913333333     0.672200000000     0          
Si       Si     0.485613333333     0.971226666667     0.327390000000     0          
Si       Si     0.514330000000     0.695326666667     0.671850000000     0          
Si       Si     0.513363333333     0.693393333333     0.279980000000     0          
Si       Si     0.486693333333     0.973386666667     0.719340000000     0          
Si       Si     0.402280000000     0.804560000000     0.780080000000     0          
Si       Si     0.597680000000     0.862026666667     0.219490000000     0          
O        O      0.646363333333     0.686970000000     0.457170000000     0          
O        O      0.353616666667     0.979716666667     0.542270000000     0          
O        O      0.403826666667     0.868580000000     0.457230000000     0          
O        O      0.599386666667     0.799693333333     0.541160000000     0          
O        O      0.590943333333     0.909726666667     0.430780000000     0          
O        O      0.646346666667     0.959360000000     0.405170000000     0          
O        O      0.408943333333     0.756703333333     0.568720000000     0          
O        O      0.353633333333     0.707266666667     0.594430000000     0          
O        O      0.520793333333     0.873726666667     0.069200000000     0          
O        O      0.464736666667     0.868596666667     0.093340000000     0          
O        O      0.479830000000     0.792326666667     0.930850000000     0          
O        O      0.535236666667     0.798096666667     0.905230000000     0          
O        O      0.555553333333     0.944443333333     0.428340000000     0          
O        O      0.555470000000     0.982193333333     0.387540000000     0          
O        O      0.445140000000     0.722570000000     0.570900000000     0          
O        O      0.443986666667     0.684790000000     0.612090000000     0          
O        O      0.646440000000     0.686893333333     0.320040000000     0          
O        O      0.353546666667     0.979786666667     0.679690000000     0          
O        O      0.403993333333     0.868663333333     0.320090000000     0          
O        O      0.595973333333     0.797986666667     0.678660000000     0          
O        O      0.388920000000     0.777840000000     0.346680000000     0          
O        O      0.424543333333     0.742806666667     0.344490000000     0          
O        O      0.459570000000     0.812693333333     0.344400000000     0          
O        O      0.610973333333     0.888613333333     0.653320000000     0          
O        O      0.575580000000     0.923926666667     0.655160000000     0          
O        O      0.540246666667     0.854110000000     0.654870000000     0          
O        O      0.614506666667     0.895680000000     0.300020000000     0          
O        O      0.385506666667     0.771013333333     0.699600000000     0          
O        O      0.496566666667     0.993133333333     0.299900000000     0          
O        O      0.503526666667     0.673720000000     0.699480000000     0          
O        O      0.506513333333     0.679693333333     0.249670000000     0          
O        O      0.555530000000     0.717133333333     0.285650000000     0          
O        O      0.505073333333     0.949566666667     0.713800000000     0          
O        O      0.395433333333     0.790866666667     0.749770000000     0          
Si       Si     0.555536666667     0.908636666667     0.419450000000     0          
Si       Si     0.444296666667     0.757810000000     0.580170000000     0          
Si       Si     0.424683333333     0.980213333333     0.355620000000     0          
Si       Si     0.575483333333     0.686526666667     0.644030000000     0          
O        O      0.590943333333     0.681216666667     0.430780000000     0          
O        O      0.408943333333     0.985573333333     0.568720000000     0          
O        O      0.520793333333     0.980400000000     0.069200000000     0          
O        O      0.479830000000     0.687503333333     0.930850000000     0          
O        O      0.555470000000     0.906610000000     0.387540000000     0          
O        O      0.443986666667     0.759196666667     0.612090000000     0          
O        O      0.424543333333     0.681736666667     0.344490000000     0          
O        O      0.459570000000     0.980210000000     0.344400000000     0          
O        O      0.575580000000     0.984986666667     0.655160000000     0          
O        O      0.540246666667     0.686136666667     0.654870000000     0          
O        O      0.555530000000     0.838396666667     0.285650000000     0          
O        O      0.505073333333     0.888840000000     0.713800000000     0          
Si       Si     0.646900000000     0.888870000000     0.919450000000     0          
Si       Si     0.353153333333     0.777630000000     0.080170000000     0          
Si       Si     0.444470000000     0.758016666667     0.855620000000     0          
Si       Si     0.555623333333     0.908816666667     0.144030000000     0          
O        O      0.576393333333     0.924276666667     0.930780000000     0          
O        O      0.423370000000     0.742276666667     0.068720000000     0          
O        O      0.540393333333     0.854126666667     0.569200000000     0          
O        O      0.458993333333     0.813163333333     0.430850000000     0          
O        O      0.648860000000     0.888803333333     0.887540000000     0          
O        O      0.351456666667     0.777320000000     0.112090000000     0          
O        O      0.409473333333     0.757876666667     0.844490000000     0          
O        O      0.479360000000     0.792903333333     0.844400000000     0          
O        O      0.590593333333     0.908913333333     0.155160000000     0          
O        O      0.520776666667     0.873580000000     0.154870000000     0          
O        O      0.383800000000     0.888863333333     0.785650000000     0          
O        O      0.616233333333     0.838406666667     0.213800000000     0          
Si       Si     0.424696666667     0.980233333333     0.419450000000     0          
Si       Si     0.575523333333     0.686486666667     0.580170000000     0          
Si       Si     0.353120000000     0.777803333333     0.355620000000     0          
Si       Si     0.646806666667     0.888956666667     0.644030000000     0          
O        O      0.652116666667     0.909726666667     0.430780000000     0          
O        O      0.347760000000     0.756703333333     0.568720000000     0          
O        O      0.352933333333     0.873726666667     0.069200000000     0          
O        O      0.645830000000     0.792326666667     0.930850000000     0          
O        O      0.426723333333     0.982193333333     0.387540000000     0          
O        O      0.574136666667     0.684790000000     0.612090000000     0          
O        O      0.651596666667     0.742806666667     0.344490000000     0          
O        O      0.353123333333     0.812693333333     0.344400000000     0          
O        O      0.348346666667     0.923926666667     0.655160000000     0          
O        O      0.647196666667     0.854110000000     0.654870000000     0          
O        O      0.494936666667     0.717133333333     0.285650000000     0          
O        O      0.444493333333     0.949566666667     0.713800000000     0          
Si       Si     0.444463333333     0.758030000000     0.919450000000     0          
Si       Si     0.555703333333     0.908856666667     0.080170000000     0          
Si       Si     0.575316666667     0.686453333333     0.855620000000     0          
Si       Si     0.424516666667     0.980140000000     0.144030000000     0          
O        O      0.409056666667     0.985450000000     0.930780000000     0          
O        O      0.591056666667     0.681093333333     0.068720000000     0          
O        O      0.479206666667     0.686266666667     0.569200000000     0          
O        O      0.520170000000     0.979163333333     0.430850000000     0          
O        O      0.444530000000     0.760056666667     0.887540000000     0          
O        O      0.556013333333     0.907470000000     0.112090000000     0          
O        O      0.575456666667     0.984930000000     0.844490000000     0          
O        O      0.540430000000     0.686456666667     0.844400000000     0          
O        O      0.424420000000     0.681680000000     0.155160000000     0          
O        O      0.459753333333     0.980530000000     0.154870000000     0          
O        O      0.444470000000     0.828270000000     0.785650000000     0          
O        O      0.494926666667     0.777826666667     0.213800000000     0          
Si       Si     0.353100000000     0.777796666667     0.419450000000     0          
Si       Si     0.646846666667     0.889036666667     0.580170000000     0          
Si       Si     0.555530000000     0.908650000000     0.355620000000     0          
Si       Si     0.444376666667     0.757850000000     0.644030000000     0          
O        O      0.423606666667     0.742390000000     0.430780000000     0          
O        O      0.576630000000     0.924390000000     0.568720000000     0          
O        O      0.459606666667     0.812540000000     0.069200000000     0          
O        O      0.541006666667     0.853503333333     0.930850000000     0          
O        O      0.351140000000     0.777863333333     0.387540000000     0          
O        O      0.648543333333     0.889346666667     0.612090000000     0          
O        O      0.590526666667     0.908790000000     0.344490000000     0          
O        O      0.520640000000     0.873763333333     0.344400000000     0          
O        O      0.409406666667     0.757753333333     0.655160000000     0          
O        O      0.479223333333     0.793086666667     0.654870000000     0          
O        O      0.616200000000     0.777803333333     0.285650000000     0          
O        O      0.383766666667     0.828260000000     0.713800000000     0          
Si       Si     0.575303333333     0.686433333333     0.919450000000     0          
Si       Si     0.424476666667     0.980180000000     0.080170000000     0          
Si       Si     0.646880000000     0.888863333333     0.855620000000     0          
Si       Si     0.353193333333     0.777710000000     0.144030000000     0          
O        O      0.347883333333     0.756940000000     0.930780000000     0          
O        O      0.652240000000     0.909963333333     0.068720000000     0          
O        O      0.647066666667     0.792940000000     0.569200000000     0          
O        O      0.354170000000     0.874340000000     0.430850000000     0          
O        O      0.573276666667     0.684473333333     0.887540000000     0          
O        O      0.425863333333     0.981876666667     0.112090000000     0          
O        O      0.348403333333     0.923860000000     0.844490000000     0          
O        O      0.646876666667     0.853973333333     0.844400000000     0          
O        O      0.651653333333     0.742740000000     0.155160000000     0          
O        O      0.352803333333     0.812556666667     0.154870000000     0          
O        O      0.505063333333     0.949533333333     0.785650000000     0          
O        O      0.555506666667     0.717100000000     0.213800000000     0          
Si       Si     0.908636666667     0.222203333333     0.919450000000     0          
Si       Si     0.757810000000     0.110963333333     0.080170000000     0          
Si       Si     0.980213333333     0.091350000000     0.855620000000     0          
Si       Si     0.686526666667     0.242150000000     0.144030000000     0          
Si       Si     0.699506666667     0.300493333333     0.931180000000     0          
Si       Si     0.967260000000     0.032740000000     0.068340000000     0          
Si       Si     0.955880000000     0.144606666667     0.568100000000     0          
Si       Si     0.712100000000     0.189383333333     0.431240000000     0          
Si       Si     0.707816666667     0.292183333333     0.827460000000     0          
Si       Si     0.958876666667     0.041123333333     0.172200000000     0          
Si       Si     0.847720000000     0.152280000000     0.827390000000     0          
Si       Si     0.819003333333     0.180996666667     0.171850000000     0          
Si       Si     0.819970000000     0.180030000000     0.779980000000     0          
Si       Si     0.846640000000     0.153360000000     0.219340000000     0          
Si       Si     0.931053333333     0.068946666667     0.280080000000     0          
Si       Si     0.735653333333     0.264346666667     0.719490000000     0          
Si       Si     0.777776666667     0.222223333333     0.467790000000     0          
Si       Si     0.777776666667     0.222223333333     0.103910000000     0          
Si       Si     0.888890000000     0.111110000000     0.894750000000     0          
Si       Si     0.888890000000     0.111110000000     0.830890000000     0          
Si       Si     0.777776666667     0.222223333333     0.167770000000     0          
Si       Si     0.666666666667     0.000000000000     0.967750000000     0          
Si       Si     0.666666666667     0.000000000000     0.031620000000     0          
Si       Si     0.666666666667     0.000000000000     0.894700000000     0          
Si       Si     0.666666666667     0.000000000000     0.104980000000     0          
Si       Si     0.666666666667     0.000000000000     0.830840000000     0          
Si       Si     0.666666666667     0.000000000000     0.168840000000     0          
O        O      0.959393333333     0.313030000000     0.957170000000     0          
O        O      0.666666666667     0.000000000000     0.999690000000     0          
O        O      0.707233333333     0.020283333333     0.042270000000     0          
O        O      0.868580000000     0.070493333333     0.957230000000     0          
O        O      0.777776666667     0.222223333333     0.499760000000     0          
O        O      0.799693333333     0.266053333333     0.041160000000     0          
O        O      0.681216666667     0.257610000000     0.930780000000     0          
O        O      0.686986666667     0.313013333333     0.905170000000     0          
O        O      0.985573333333     0.075610000000     0.068720000000     0          
O        O      0.979700000000     0.020300000000     0.094430000000     0          
O        O      0.980400000000     0.187460000000     0.569200000000     0          
O        O      0.929473333333     0.131403333333     0.593340000000     0          
O        O      0.687503333333     0.146496666667     0.430850000000     0          
O        O      0.737140000000     0.201903333333     0.405230000000     0          
O        O      0.944443333333     0.222220000000     0.928340000000     0          
O        O      0.906610000000     0.222136666667     0.887540000000     0          
O        O      0.722570000000     0.111806666667     0.070900000000     0          
O        O      0.759196666667     0.110653333333     0.112090000000     0          
O        O      0.666666666667     0.000000000000     0.862770000000     0          
O        O      0.666666666667     0.000000000000     0.136910000000     0          
O        O      0.888890000000     0.111110000000     0.862820000000     0          
O        O      0.777776666667     0.222223333333     0.135850000000     0          
O        O      0.959546666667     0.313106666667     0.820040000000     0          
O        O      0.707093333333     0.020213333333     0.179690000000     0          
O        O      0.868663333333     0.070660000000     0.820090000000     0          
O        O      0.797986666667     0.262640000000     0.178660000000     0          
O        O      0.944413333333     0.055586666667     0.846680000000     0          
O        O      0.681736666667     0.091210000000     0.844490000000     0          
O        O      0.980210000000     0.126236666667     0.844400000000     0          
O        O      0.722360000000     0.277640000000     0.153320000000     0          
O        O      0.984986666667     0.242246666667     0.155160000000     0          
O        O      0.686136666667     0.206913333333     0.154870000000     0          
O        O      0.718826666667     0.281173333333     0.800020000000     0          
O        O      0.947826666667     0.052173333333     0.199600000000     0          
O        O      0.836766666667     0.163233333333     0.799900000000     0          
O        O      0.829806666667     0.170193333333     0.199480000000     0          
O        O      0.826820000000     0.173180000000     0.749670000000     0          
O        O      0.838396666667     0.222196666667     0.785650000000     0          
O        O      0.888840000000     0.171740000000     0.213800000000     0          
O        O      0.937900000000     0.062100000000     0.249770000000     0          
Si       Si     0.686433333333     0.241970000000     0.419450000000     0          
Si       Si     0.980180000000     0.091143333333     0.580170000000     0          
Si       Si     0.888863333333     0.313546666667     0.355620000000     0          
Si       Si     0.777710000000     0.019860000000     0.644030000000     0          
Si       Si     0.732346666667     0.032840000000     0.431180000000     0          
Si       Si     0.934520000000     0.300593333333     0.568340000000     0          
Si       Si     0.811273333333     0.289213333333     0.068100000000     0          
Si       Si     0.856050000000     0.045433333333     0.931240000000     0          
Si       Si     0.748966666667     0.041150000000     0.327460000000     0          
Si       Si     0.917753333333     0.292210000000     0.672200000000     0          
Si       Si     0.695440000000     0.181053333333     0.327390000000     0          
Si       Si     0.971340000000     0.152336666667     0.671850000000     0          
Si       Si     0.973273333333     0.153303333333     0.279980000000     0          
Si       Si     0.693280000000     0.179973333333     0.719340000000     0          
Si       Si     0.862106666667     0.264386666667     0.780080000000     0          
Si       Si     0.804640000000     0.068986666667     0.219490000000     0          
Si       Si     0.888886666667     0.111110000000     0.967790000000     0          
Si       Si     0.888886666667     0.111110000000     0.603910000000     0          
Si       Si     0.777780000000     0.222223333333     0.394750000000     0          
Si       Si     0.777780000000     0.222223333333     0.330890000000     0          
Si       Si     0.888886666667     0.111110000000     0.667770000000     0          
Si       Si     0.666666666667     0.000000000000     0.467750000000     0          
Si       Si     0.666666666667     0.000000000000     0.531620000000     0          
Si       Si     0.666666666667     0.000000000000     0.394700000000     0          
Si       Si     0.666666666667     0.000000000000     0.604980000000     0          
Si       Si     0.666666666667     0.000000000000     0.330840000000     0          
Si       Si     0.666666666667     0.000000000000     0.668840000000     0          
O        O      0.979696666667     0.292726666667     0.457170000000     0          
O        O      0.666666666667     0.000000000000     0.499690000000     0          
O        O      0.686950000000     0.040566666667     0.542270000000     0          
O        O      0.798086666667     0.201913333333     0.457230000000     0          
O        O      0.888886666667     0.111110000000     0.999760000000     0          
O        O      0.866973333333     0.133026666667     0.541160000000     0          
O        O      0.756940000000     0.014550000000     0.430780000000     0          
O        O      0.707306666667     0.020320000000     0.405170000000     0          
O        O      0.909963333333     0.318906666667     0.568720000000     0          
O        O      0.959400000000     0.313033333333     0.594430000000     0          
O        O      0.792940000000     0.313733333333     0.069200000000     0          
O        O      0.798070000000     0.262806666667     0.093340000000     0          
O        O      0.874340000000     0.020836666667     0.930850000000     0          
O        O      0.868570000000     0.070473333333     0.905230000000     0          
O        O      0.722223333333     0.277776666667     0.428340000000     0          
O        O      0.684473333333     0.239943333333     0.387540000000     0          
O        O      0.944096666667     0.055903333333     0.570900000000     0          
O        O      0.981876666667     0.092530000000     0.612090000000     0          
O        O      0.666666666667     0.000000000000     0.362770000000     0          
O        O      0.666666666667     0.000000000000     0.636910000000     0          
O        O      0.777780000000     0.222223333333     0.362820000000     0          
O        O      0.888886666667     0.111110000000     0.635850000000     0          
O        O      0.979773333333     0.292880000000     0.320040000000     0          
O        O      0.686880000000     0.040426666667     0.679690000000     0          
O        O      0.798003333333     0.201996666667     0.320090000000     0          
O        O      0.868680000000     0.131320000000     0.678660000000     0          
O        O      0.888826666667     0.277746666667     0.346680000000     0          
O        O      0.923860000000     0.015070000000     0.344490000000     0          
O        O      0.853973333333     0.313543333333     0.344400000000     0          
O        O      0.778053333333     0.055693333333     0.653320000000     0          
O        O      0.742740000000     0.318320000000     0.655160000000     0          
O        O      0.812556666667     0.019470000000     0.654870000000     0          
O        O      0.770986666667     0.052160000000     0.300020000000     0          
O        O      0.895653333333     0.281160000000     0.699600000000     0          
O        O      0.673533333333     0.170100000000     0.299900000000     0          
O        O      0.992946666667     0.163140000000     0.699480000000     0          
O        O      0.986973333333     0.160153333333     0.249670000000     0          
O        O      0.949533333333     0.171730000000     0.285650000000     0          
O        O      0.717100000000     0.222173333333     0.713800000000     0          
O        O      0.875800000000     0.271233333333     0.749770000000     0          
Si       Si     0.777796666667     0.019766666667     0.919450000000     0          
Si       Si     0.889036666667     0.313513333333     0.080170000000     0          
Si       Si     0.908650000000     0.222196666667     0.855620000000     0          
Si       Si     0.757850000000     0.111043333333     0.144030000000     0          
Si       Si     0.699506666667     0.065680000000     0.931180000000     0          
Si       Si     0.967260000000     0.267853333333     0.068340000000     0          
Si       Si     0.855393333333     0.144606666667     0.568100000000     0          
Si       Si     0.810616666667     0.189383333333     0.431240000000     0          
Si       Si     0.707816666667     0.082300000000     0.827460000000     0          
Si       Si     0.958876666667     0.251086666667     0.172200000000     0          
Si       Si     0.847720000000     0.028773333333     0.827390000000     0          
Si       Si     0.819003333333     0.304673333333     0.171850000000     0          
Si       Si     0.819970000000     0.306606666667     0.779980000000     0          
Si       Si     0.846640000000     0.026613333333     0.219340000000     0          
Si       Si     0.931053333333     0.195440000000     0.280080000000     0          
Si       Si     0.735653333333     0.137973333333     0.719490000000     0          
O        O      0.686970000000     0.313030000000     0.957170000000     0          
O        O      0.979716666667     0.020283333333     0.042270000000     0          
O        O      0.929506666667     0.131420000000     0.957230000000     0          
O        O      0.733946666667     0.200306666667     0.041160000000     0          
O        O      0.742390000000     0.090273333333     0.930780000000     0          
O        O      0.686986666667     0.040640000000     0.905170000000     0          
O        O      0.924390000000     0.243296666667     0.068720000000     0          
O        O      0.979700000000     0.292733333333     0.094430000000     0          
O        O      0.812540000000     0.126273333333     0.569200000000     0          
O        O      0.868596666667     0.131403333333     0.593340000000     0          
O        O      0.853503333333     0.207673333333     0.430850000000     0          
O        O      0.798096666667     0.201903333333     0.405230000000     0          
O        O      0.777780000000     0.055556666667     0.928340000000     0          
O        O      0.777863333333     0.017806666667     0.887540000000     0          
O        O      0.888193333333     0.277430000000     0.070900000000     0          
O        O      0.889346666667     0.315210000000     0.112090000000     0          
O        O      0.686893333333     0.313106666667     0.820040000000     0          
O        O      0.979786666667     0.020213333333     0.179690000000     0          
O        O      0.929340000000     0.131336666667     0.820090000000     0          
O        O      0.737360000000     0.202013333333     0.178660000000     0          
O        O      0.944413333333     0.222160000000     0.846680000000     0          
O        O      0.908790000000     0.257193333333     0.844490000000     0          
O        O      0.873763333333     0.187306666667     0.844400000000     0          
O        O      0.722360000000     0.111386666667     0.153320000000     0          
O        O      0.757753333333     0.076073333333     0.155160000000     0          
O        O      0.793086666667     0.145890000000     0.154870000000     0          
O        O      0.718826666667     0.104320000000     0.800020000000     0          
O        O      0.947826666667     0.228986666667     0.199600000000     0          
O        O      0.836766666667     0.006866666667     0.799900000000     0          
O        O      0.829806666667     0.326280000000     0.199480000000     0          
O        O      0.826820000000     0.320306666667     0.749670000000     0          
O        O      0.777803333333     0.282866666667     0.785650000000     0          
O        O      0.828260000000     0.050433333333     0.213800000000     0          
O        O      0.937900000000     0.209133333333     0.249770000000     0          
Si       Si     0.758030000000     0.111130000000     0.419450000000     0          
Si       Si     0.908856666667     0.222370000000     0.580170000000     0          
Si       Si     0.686453333333     0.241983333333     0.355620000000     0          
Si       Si     0.980140000000     0.091183333333     0.644030000000     0          
Si       Si     0.967160000000     0.032840000000     0.431180000000     0          
Si       Si     0.699406666667     0.300593333333     0.568340000000     0          
Si       Si     0.710786666667     0.188726666667     0.068100000000     0          
Si       Si     0.954566666667     0.143950000000     0.931240000000     0          
Si       Si     0.958850000000     0.041150000000     0.327460000000     0          
Si       Si     0.707790000000     0.292210000000     0.672200000000     0          
Si       Si     0.818946666667     0.181053333333     0.327390000000     0          
Si       Si     0.847663333333     0.152336666667     0.671850000000     0          
Si       Si     0.846696666667     0.153303333333     0.279980000000     0          
Si       Si     0.820026666667     0.179973333333     0.719340000000     0          
Si       Si     0.735613333333     0.264386666667     0.780080000000     0          
Si       Si     0.931013333333     0.068986666667     0.219490000000     0          
O        O      0.707273333333     0.020303333333     0.457170000000     0          
O        O      0.959433333333     0.313050000000     0.542270000000     0          
O        O      0.798086666667     0.262840000000     0.457230000000     0          
O        O      0.866973333333     0.067280000000     0.541160000000     0          
O        O      0.985450000000     0.075723333333     0.430780000000     0          
O        O      0.979680000000     0.020320000000     0.405170000000     0          
O        O      0.681093333333     0.257723333333     0.568720000000     0          
O        O      0.686966666667     0.313033333333     0.594430000000     0          
O        O      0.686266666667     0.145873333333     0.069200000000     0          
O        O      0.737193333333     0.201930000000     0.093340000000     0          
O        O      0.979163333333     0.186836666667     0.930850000000     0          
O        O      0.929526666667     0.131430000000     0.905230000000     0          
O        O      0.722223333333     0.111113333333     0.428340000000     0          
O        O      0.760056666667     0.111196666667     0.387540000000     0          
O        O      0.944096666667     0.221526666667     0.570900000000     0          
O        O      0.907470000000     0.222680000000     0.612090000000     0          
O        O      0.707120000000     0.020226666667     0.320040000000     0          
O        O      0.959573333333     0.313120000000     0.679690000000     0          
O        O      0.798003333333     0.262673333333     0.320090000000     0          
O        O      0.868680000000     0.070693333333     0.678660000000     0          
O        O      0.722253333333     0.277746666667     0.346680000000     0          
O        O      0.984930000000     0.242123333333     0.344490000000     0          
O        O      0.686456666667     0.207096666667     0.344400000000     0          
O        O      0.944306666667     0.055693333333     0.653320000000     0          
O        O      0.681680000000     0.091086666667     0.655160000000     0          
O        O      0.980530000000     0.126420000000     0.654870000000     0          
O        O      0.947840000000     0.052160000000     0.300020000000     0          
O        O      0.718840000000     0.281160000000     0.699600000000     0          
O        O      0.829900000000     0.170100000000     0.299900000000     0          
O        O      0.836860000000     0.163140000000     0.699480000000     0          
O        O      0.839846666667     0.160153333333     0.249670000000     0          
O        O      0.828270000000     0.111136666667     0.285650000000     0          
O        O      0.777826666667     0.161593333333     0.713800000000     0          
O        O      0.728766666667     0.271233333333     0.749770000000     0          
Si       Si     0.980233333333     0.091363333333     0.919450000000     0          
Si       Si     0.686486666667     0.242190000000     0.080170000000     0          
Si       Si     0.777803333333     0.019786666667     0.855620000000     0          
Si       Si     0.888956666667     0.313473333333     0.144030000000     0          
Si       Si     0.934320000000     0.300493333333     0.931180000000     0          
Si       Si     0.732146666667     0.032740000000     0.068340000000     0          
Si       Si     0.855393333333     0.044120000000     0.568100000000     0          
Si       Si     0.810616666667     0.287900000000     0.431240000000     0          
Si       Si     0.917700000000     0.292183333333     0.827460000000     0          
Si       Si     0.748913333333     0.041123333333     0.172200000000     0          
Si       Si     0.971226666667     0.152280000000     0.827390000000     0          
Si       Si     0.695326666667     0.180996666667     0.171850000000     0          
Si       Si     0.693393333333     0.180030000000     0.779980000000     0          
Si       Si     0.973386666667     0.153360000000     0.219340000000     0          
Si       Si     0.804560000000     0.068946666667     0.280080000000     0          
Si       Si     0.862026666667     0.264346666667     0.719490000000     0          
O        O      0.686970000000     0.040606666667     0.957170000000     0          
O        O      0.979716666667     0.292766666667     0.042270000000     0          
O        O      0.868580000000     0.131420000000     0.957230000000     0          
O        O      0.799693333333     0.200306666667     0.041160000000     0          
O        O      0.909726666667     0.318783333333     0.930780000000     0          
O        O      0.959360000000     0.313013333333     0.905170000000     0          
O        O      0.756703333333     0.014426666667     0.068720000000     0          
O        O      0.707266666667     0.020300000000     0.094430000000     0          
O        O      0.873726666667     0.019600000000     0.569200000000     0          
O        O      0.868596666667     0.070526666667     0.593340000000     0          
O        O      0.792326666667     0.312496666667     0.430850000000     0          
O        O      0.798096666667     0.262860000000     0.405230000000     0          
O        O      0.944443333333     0.055556666667     0.928340000000     0          
O        O      0.982193333333     0.093390000000     0.887540000000     0          
O        O      0.722570000000     0.277430000000     0.070900000000     0          
O        O      0.684790000000     0.240803333333     0.112090000000     0          
O        O      0.686893333333     0.040453333333     0.820040000000     0          
O        O      0.979786666667     0.292906666667     0.179690000000     0          
O        O      0.868663333333     0.131336666667     0.820090000000     0          
O        O      0.797986666667     0.202013333333     0.178660000000     0          
O        O      0.777840000000     0.055586666667     0.846680000000     0          
O        O      0.742806666667     0.318263333333     0.844490000000     0          
O        O      0.812693333333     0.019790000000     0.844400000000     0          
O        O      0.888613333333     0.277640000000     0.153320000000     0          
O        O      0.923926666667     0.015013333333     0.155160000000     0          
O        O      0.854110000000     0.313863333333     0.154870000000     0          
O        O      0.895680000000     0.281173333333     0.800020000000     0          
O        O      0.771013333333     0.052173333333     0.199600000000     0          
O        O      0.993133333333     0.163233333333     0.799900000000     0          
O        O      0.673720000000     0.170193333333     0.199480000000     0          
O        O      0.679693333333     0.173180000000     0.749670000000     0          
O        O      0.717133333333     0.161603333333     0.785650000000     0          
O        O      0.949566666667     0.111160000000     0.213800000000     0          
O        O      0.790866666667     0.062100000000     0.249770000000     0          
Si       Si     0.888870000000     0.313566666667     0.419450000000     0          
Si       Si     0.777630000000     0.019820000000     0.580170000000     0          
Si       Si     0.758016666667     0.111136666667     0.355620000000     0          
Si       Si     0.908816666667     0.222290000000     0.644030000000     0          
Si       Si     0.967160000000     0.267653333333     0.431180000000     0          
Si       Si     0.699406666667     0.065480000000     0.568340000000     0          
Si       Si     0.811273333333     0.188726666667     0.068100000000     0          
Si       Si     0.856050000000     0.143950000000     0.931240000000     0          
Si       Si     0.958850000000     0.251033333333     0.327460000000     0          
Si       Si     0.707790000000     0.082246666667     0.672200000000     0          
Si       Si     0.818946666667     0.304560000000     0.327390000000     0          
Si       Si     0.847663333333     0.028660000000     0.671850000000     0          
Si       Si     0.846696666667     0.026726666667     0.279980000000     0          
Si       Si     0.820026666667     0.306720000000     0.719340000000     0          
Si       Si     0.735613333333     0.137893333333     0.780080000000     0          
Si       Si     0.931013333333     0.195360000000     0.219490000000     0          
O        O      0.979696666667     0.020303333333     0.457170000000     0          
O        O      0.686950000000     0.313050000000     0.542270000000     0          
O        O      0.737160000000     0.201913333333     0.457230000000     0          
O        O      0.932720000000     0.133026666667     0.541160000000     0          
O        O      0.924276666667     0.243060000000     0.430780000000     0          
O        O      0.979680000000     0.292693333333     0.405170000000     0          
O        O      0.742276666667     0.090036666667     0.568720000000     0          
O        O      0.686966666667     0.040600000000     0.594430000000     0          
O        O      0.854126666667     0.207060000000     0.069200000000     0          
O        O      0.798070000000     0.201930000000     0.093340000000     0          
O        O      0.813163333333     0.125660000000     0.930850000000     0          
O        O      0.868570000000     0.131430000000     0.905230000000     0          
O        O      0.888886666667     0.277776666667     0.428340000000     0          
O        O      0.888803333333     0.315526666667     0.387540000000     0          
O        O      0.778473333333     0.055903333333     0.570900000000     0          
O        O      0.777320000000     0.018123333333     0.612090000000     0          
O        O      0.979773333333     0.020226666667     0.320040000000     0          
O        O      0.686880000000     0.313120000000     0.679690000000     0          
O        O      0.737326666667     0.201996666667     0.320090000000     0          
O        O      0.929306666667     0.131320000000     0.678660000000     0          
O        O      0.722253333333     0.111173333333     0.346680000000     0          
O        O      0.757876666667     0.076140000000     0.344490000000     0          
O        O      0.792903333333     0.146026666667     0.344400000000     0          
O        O      0.944306666667     0.221946666667     0.653320000000     0          
O        O      0.908913333333     0.257260000000     0.655160000000     0          
O        O      0.873580000000     0.187443333333     0.654870000000     0          
O        O      0.947840000000     0.229013333333     0.300020000000     0          
O        O      0.718840000000     0.104346666667     0.699600000000     0          
O        O      0.829900000000     0.326466666667     0.299900000000     0          
O        O      0.836860000000     0.007053333333     0.699480000000     0          
O        O      0.839846666667     0.013026666667     0.249670000000     0          
O        O      0.888863333333     0.050466666667     0.285650000000     0          
O        O      0.838406666667     0.282900000000     0.713800000000     0          
O        O      0.728766666667     0.124200000000     0.749770000000     0          
Si       Si     0.888870000000     0.241970000000     0.419450000000     0          
Si       Si     0.777630000000     0.091143333333     0.580170000000     0          
Si       Si     0.758016666667     0.313546666667     0.355620000000     0          
Si       Si     0.908816666667     0.019860000000     0.644030000000     0          
O        O      0.924276666667     0.014550000000     0.430780000000     0          
O        O      0.742276666667     0.318906666667     0.568720000000     0          
O        O      0.854126666667     0.313733333333     0.069200000000     0          
O        O      0.813163333333     0.020836666667     0.930850000000     0          
O        O      0.888803333333     0.239943333333     0.387540000000     0          
O        O      0.777320000000     0.092530000000     0.612090000000     0          
O        O      0.757876666667     0.015070000000     0.344490000000     0          
O        O      0.792903333333     0.313543333333     0.344400000000     0          
O        O      0.908913333333     0.318320000000     0.655160000000     0          
O        O      0.873580000000     0.019470000000     0.654870000000     0          
O        O      0.888863333333     0.171730000000     0.285650000000     0          
O        O      0.838406666667     0.222173333333     0.713800000000     0          
Si       Si     0.980233333333     0.222203333333     0.919450000000     0          
Si       Si     0.686486666667     0.110963333333     0.080170000000     0          
Si       Si     0.777803333333     0.091350000000     0.855620000000     0          
Si       Si     0.888956666667     0.242150000000     0.144030000000     0          
O        O      0.909726666667     0.257610000000     0.930780000000     0          
O        O      0.756703333333     0.075610000000     0.068720000000     0          
O        O      0.873726666667     0.187460000000     0.569200000000     0          
O        O      0.792326666667     0.146496666667     0.430850000000     0          
O        O      0.982193333333     0.222136666667     0.887540000000     0          
O        O      0.684790000000     0.110653333333     0.112090000000     0          
O        O      0.742806666667     0.091210000000     0.844490000000     0          
O        O      0.812693333333     0.126236666667     0.844400000000     0          
O        O      0.923926666667     0.242246666667     0.155160000000     0          
O        O      0.854110000000     0.206913333333     0.154870000000     0          
O        O      0.717133333333     0.222196666667     0.785650000000     0          
O        O      0.949566666667     0.171740000000     0.213800000000     0          
Si       Si     0.758030000000     0.313566666667     0.419450000000     0          
Si       Si     0.908856666667     0.019820000000     0.580170000000     0          
Si       Si     0.686453333333     0.111136666667     0.355620000000     0          
Si       Si     0.980140000000     0.222290000000     0.644030000000     0          
O        O      0.985450000000     0.243060000000     0.430780000000     0          
O        O      0.681093333333     0.090036666667     0.568720000000     0          
O        O      0.686266666667     0.207060000000     0.069200000000     0          
O        O      0.979163333333     0.125660000000     0.930850000000     0          
O        O      0.760056666667     0.315526666667     0.387540000000     0          
O        O      0.907470000000     0.018123333333     0.612090000000     0          
O        O      0.984930000000     0.076140000000     0.344490000000     0          
O        O      0.686456666667     0.146026666667     0.344400000000     0          
O        O      0.681680000000     0.257260000000     0.655160000000     0          
O        O      0.980530000000     0.187443333333     0.654870000000     0          
O        O      0.828270000000     0.050466666667     0.285650000000     0          
O        O      0.777826666667     0.282900000000     0.713800000000     0          
Si       Si     0.777796666667     0.091363333333     0.919450000000     0          
Si       Si     0.889036666667     0.242190000000     0.080170000000     0          
Si       Si     0.908650000000     0.019786666667     0.855620000000     0          
Si       Si     0.757850000000     0.313473333333     0.144030000000     0          
O        O      0.742390000000     0.318783333333     0.930780000000     0          
O        O      0.924390000000     0.014426666667     0.068720000000     0          
O        O      0.812540000000     0.019600000000     0.569200000000     0          
O        O      0.853503333333     0.312496666667     0.430850000000     0          
O        O      0.777863333333     0.093390000000     0.887540000000     0          
O        O      0.889346666667     0.240803333333     0.112090000000     0          
O        O      0.908790000000     0.318263333333     0.844490000000     0          
O        O      0.873763333333     0.019790000000     0.844400000000     0          
O        O      0.757753333333     0.015013333333     0.155160000000     0          
O        O      0.793086666667     0.313863333333     0.154870000000     0          
O        O      0.777803333333     0.161603333333     0.785650000000     0          
O        O      0.828260000000     0.111160000000     0.213800000000     0          
Si       Si     0.686433333333     0.111130000000     0.419450000000     0          
Si       Si     0.980180000000     0.222370000000     0.580170000000     0          
Si       Si     0.888863333333     0.241983333333     0.355620000000     0          
Si       Si     0.777710000000     0.091183333333     0.644030000000     0          
O        O      0.756940000000     0.075723333333     0.430780000000     0          
O        O      0.909963333333     0.257723333333     0.568720000000     0          
O        O      0.792940000000     0.145873333333     0.069200000000     0          
O        O      0.874340000000     0.186836666667     0.930850000000     0          
O        O      0.684473333333     0.111196666667     0.387540000000     0          
O        O      0.981876666667     0.222680000000     0.612090000000     0          
O        O      0.923860000000     0.242123333333     0.344490000000     0          
O        O      0.853973333333     0.207096666667     0.344400000000     0          
O        O      0.742740000000     0.091086666667     0.655160000000     0          
O        O      0.812556666667     0.126420000000     0.654870000000     0          
O        O      0.949533333333     0.111136666667     0.285650000000     0          
O        O      0.717100000000     0.161593333333     0.713800000000     0          
Si       Si     0.908636666667     0.019766666667     0.919450000000     0          
Si       Si     0.757810000000     0.313513333333     0.080170000000     0          
Si       Si     0.980213333333     0.222196666667     0.855620000000     0          
Si       Si     0.686526666667     0.111043333333     0.144030000000     0          
O        O      0.681216666667     0.090273333333     0.930780000000     0          
O        O      0.985573333333     0.243296666667     0.068720000000     0          
O        O      0.980400000000     0.126273333333     0.569200000000     0          
O        O      0.687503333333     0.207673333333     0.430850000000     0          
O        O      0.906610000000     0.017806666667     0.887540000000     0          
O        O      0.759196666667     0.315210000000     0.112090000000     0          
O        O      0.681736666667     0.257193333333     0.844490000000     0          
O        O      0.980210000000     0.187306666667     0.844400000000     0          
O        O      0.984986666667     0.076073333333     0.155160000000     0          
O        O      0.686136666667     0.145890000000     0.154870000000     0          
O        O      0.838396666667     0.282866666667     0.785650000000     0          
O        O      0.888840000000     0.050433333333     0.213800000000     0          
Si       Si     0.908636666667     0.555536666667     0.919450000000     0          
Si       Si     0.757810000000     0.444296666667     0.080170000000     0          
Si       Si     0.980213333333     0.424683333333     0.855620000000     0          
Si       Si     0.686526666667     0.575483333333     0.144030000000     0          
Si       Si     0.699506666667     0.633826666667     0.931180000000     0          
Si       Si     0.967260000000     0.366073333333     0.068340000000     0          
Si       Si     0.955880000000     0.477940000000     0.568100000000     0          
Si       Si     0.712100000000     0.522716666667     0.431240000000     0          
Si       Si     0.707816666667     0.625516666667     0.827460000000     0          
Si       Si     0.958876666667     0.374456666667     0.172200000000     0          
Si       Si     0.847720000000     0.485613333333     0.827390000000     0          
Si       Si     0.819003333333     0.514330000000     0.171850000000     0          
Si       Si     0.819970000000     0.513363333333     0.779980000000     0          
Si       Si     0.846640000000     0.486693333333     0.219340000000     0          
Si       Si     0.931053333333     0.402280000000     0.280080000000     0          
Si       Si     0.735653333333     0.597680000000     0.719490000000     0          
Si       Si     0.777776666667     0.555556666667     0.467790000000     0          
Si       Si     0.777776666667     0.555556666667     0.103910000000     0          
Si       Si     0.888890000000     0.444443333333     0.894750000000     0          
Si       Si     0.888890000000     0.444443333333     0.830890000000     0          
Si       Si     0.777776666667     0.555556666667     0.167770000000     0          
Si       Si     0.666666666667     0.333333333333     0.967750000000     0          
Si       Si     0.666666666667     0.333333333333     0.031620000000     0          
Si       Si     0.666666666667     0.333333333333     0.894700000000     0          
Si       Si     0.666666666667     0.333333333333     0.104980000000     0          
Si       Si     0.666666666667     0.333333333333     0.830840000000     0          
Si       Si     0.666666666667     0.333333333333     0.168840000000     0          
O        O      0.959393333333     0.646363333333     0.957170000000     0          
O        O      0.666666666667     0.333333333333     0.999690000000     0          
O        O      0.707233333333     0.353616666667     0.042270000000     0          
O        O      0.868580000000     0.403826666667     0.957230000000     0          
O        O      0.777776666667     0.555556666667     0.499760000000     0          
O        O      0.799693333333     0.599386666667     0.041160000000     0          
O        O      0.681216666667     0.590943333333     0.930780000000     0          
O        O      0.686986666667     0.646346666667     0.905170000000     0          
O        O      0.985573333333     0.408943333333     0.068720000000     0          
O        O      0.979700000000     0.353633333333     0.094430000000     0          
O        O      0.980400000000     0.520793333333     0.569200000000     0          
O        O      0.929473333333     0.464736666667     0.593340000000     0          
O        O      0.687503333333     0.479830000000     0.430850000000     0          
O        O      0.737140000000     0.535236666667     0.405230000000     0          
O        O      0.944443333333     0.555553333333     0.928340000000     0          
O        O      0.906610000000     0.555470000000     0.887540000000     0          
O        O      0.722570000000     0.445140000000     0.070900000000     0          
O        O      0.759196666667     0.443986666667     0.112090000000     0          
O        O      0.666666666667     0.333333333333     0.862770000000     0          
O        O      0.666666666667     0.333333333333     0.136910000000     0          
O        O      0.888890000000     0.444443333333     0.862820000000     0          
O        O      0.777776666667     0.555556666667     0.135850000000     0          
O        O      0.959546666667     0.646440000000     0.820040000000     0          
O        O      0.707093333333     0.353546666667     0.179690000000     0          
O        O      0.868663333333     0.403993333333     0.820090000000     0          
O        O      0.797986666667     0.595973333333     0.178660000000     0          
O        O      0.944413333333     0.388920000000     0.846680000000     0          
O        O      0.681736666667     0.424543333333     0.844490000000     0          
O        O      0.980210000000     0.459570000000     0.844400000000     0          
O        O      0.722360000000     0.610973333333     0.153320000000     0          
O        O      0.984986666667     0.575580000000     0.155160000000     0          
O        O      0.686136666667     0.540246666667     0.154870000000     0          
O        O      0.718826666667     0.614506666667     0.800020000000     0          
O        O      0.947826666667     0.385506666667     0.199600000000     0          
O        O      0.836766666667     0.496566666667     0.799900000000     0          
O        O      0.829806666667     0.503526666667     0.199480000000     0          
O        O      0.826820000000     0.506513333333     0.749670000000     0          
O        O      0.838396666667     0.555530000000     0.785650000000     0          
O        O      0.888840000000     0.505073333333     0.213800000000     0          
O        O      0.937900000000     0.395433333333     0.249770000000     0          
Si       Si     0.686433333333     0.575303333333     0.419450000000     0          
Si       Si     0.980180000000     0.424476666667     0.580170000000     0          
Si       Si     0.888863333333     0.646880000000     0.355620000000     0          
Si       Si     0.777710000000     0.353193333333     0.644030000000     0          
Si       Si     0.732346666667     0.366173333333     0.431180000000     0          
Si       Si     0.934520000000     0.633926666667     0.568340000000     0          
Si       Si     0.811273333333     0.622546666667     0.068100000000     0          
Si       Si     0.856050000000     0.378766666667     0.931240000000     0          
Si       Si     0.748966666667     0.374483333333     0.327460000000     0          
Si       Si     0.917753333333     0.625543333333     0.672200000000     0          
Si       Si     0.695440000000     0.514386666667     0.327390000000     0          
Si       Si     0.971340000000     0.485670000000     0.671850000000     0          
Si       Si     0.973273333333     0.486636666667     0.279980000000     0          
Si       Si     0.693280000000     0.513306666667     0.719340000000     0          
Si       Si     0.862106666667     0.597720000000     0.780080000000     0          
Si       Si     0.804640000000     0.402320000000     0.219490000000     0          
Si       Si     0.888886666667     0.444443333333     0.967790000000     0          
Si       Si     0.888886666667     0.444443333333     0.603910000000     0          
Si       Si     0.777780000000     0.555556666667     0.394750000000     0          
Si       Si     0.777780000000     0.555556666667     0.330890000000     0          
Si       Si     0.888886666667     0.444443333333     0.667770000000     0          
Si       Si     0.666666666667     0.333333333333     0.467750000000     0          
Si       Si     0.666666666667     0.333333333333     0.531620000000     0          
Si       Si     0.666666666667     0.333333333333     0.394700000000     0          
Si       Si     0.666666666667     0.333333333333     0.604980000000     0          
Si       Si     0.666666666667     0.333333333333     0.330840000000     0          
Si       Si     0.666666666667     0.333333333333     0.668840000000     0          
O        O      0.979696666667     0.626060000000     0.457170000000     0          
O        O      0.666666666667     0.333333333333     0.499690000000     0          
O        O      0.686950000000     0.373900000000     0.542270000000     0          
O        O      0.798086666667     0.535246666667     0.457230000000     0          
O        O      0.888886666667     0.444443333333     0.999760000000     0          
O        O      0.866973333333     0.466360000000     0.541160000000     0          
O        O      0.756940000000     0.347883333333     0.430780000000     0          
O        O      0.707306666667     0.353653333333     0.405170000000     0          
O        O      0.909963333333     0.652240000000     0.568720000000     0          
O        O      0.959400000000     0.646366666667     0.594430000000     0          
O        O      0.792940000000     0.647066666667     0.069200000000     0          
O        O      0.798070000000     0.596140000000     0.093340000000     0          
O        O      0.874340000000     0.354170000000     0.930850000000     0          
O        O      0.868570000000     0.403806666667     0.905230000000     0          
O        O      0.722223333333     0.611110000000     0.428340000000     0          
O        O      0.684473333333     0.573276666667     0.387540000000     0          
O        O      0.944096666667     0.389236666667     0.570900000000     0          
O        O      0.981876666667     0.425863333333     0.612090000000     0          
O        O      0.666666666667     0.333333333333     0.362770000000     0          
O        O      0.666666666667     0.333333333333     0.636910000000     0          
O        O      0.777780000000     0.555556666667     0.362820000000     0          
O        O      0.888886666667     0.444443333333     0.635850000000     0          
O        O      0.979773333333     0.626213333333     0.320040000000     0          
O        O      0.686880000000     0.373760000000     0.679690000000     0          
O        O      0.798003333333     0.535330000000     0.320090000000     0          
O        O      0.868680000000     0.464653333333     0.678660000000     0          
O        O      0.888826666667     0.611080000000     0.346680000000     0          
O        O      0.923860000000     0.348403333333     0.344490000000     0          
O        O      0.853973333333     0.646876666667     0.344400000000     0          
O        O      0.778053333333     0.389026666667     0.653320000000     0          
O        O      0.742740000000     0.651653333333     0.655160000000     0          
O        O      0.812556666667     0.352803333333     0.654870000000     0          
O        O      0.770986666667     0.385493333333     0.300020000000     0          
O        O      0.895653333333     0.614493333333     0.699600000000     0          
O        O      0.673533333333     0.503433333333     0.299900000000     0          
O        O      0.992946666667     0.496473333333     0.699480000000     0          
O        O      0.986973333333     0.493486666667     0.249670000000     0          
O        O      0.949533333333     0.505063333333     0.285650000000     0          
O        O      0.717100000000     0.555506666667     0.713800000000     0          
O        O      0.875800000000     0.604566666667     0.749770000000     0          
Si       Si     0.777796666667     0.353100000000     0.919450000000     0          
Si       Si     0.889036666667     0.646846666667     0.080170000000     0          
Si       Si     0.908650000000     0.555530000000     0.855620000000     0          
Si       Si     0.757850000000     0.444376666667     0.144030000000     0          
Si       Si     0.699506666667     0.399013333333     0.931180000000     0          
Si       Si     0.967260000000     0.601186666667     0.068340000000     0          
Si       Si     0.855393333333     0.477940000000     0.568100000000     0          
Si       Si     0.810616666667     0.522716666667     0.431240000000     0          
Si       Si     0.707816666667     0.415633333333     0.827460000000     0          
Si       Si     0.958876666667     0.584420000000     0.172200000000     0          
Si       Si     0.847720000000     0.362106666667     0.827390000000     0          
Si       Si     0.819003333333     0.638006666667     0.171850000000     0          
Si       Si     0.819970000000     0.639940000000     0.779980000000     0          
Si       Si     0.846640000000     0.359946666667     0.219340000000     0          
Si       Si     0.931053333333     0.528773333333     0.280080000000     0          
Si       Si     0.735653333333     0.471306666667     0.719490000000     0          
O        O      0.686970000000     0.646363333333     0.957170000000     0          
O        O      0.979716666667     0.353616666667     0.042270000000     0          
O        O      0.929506666667     0.464753333333     0.957230000000     0          
O        O      0.733946666667     0.533640000000     0.041160000000     0          
O        O      0.742390000000     0.423606666667     0.930780000000     0          
O        O      0.686986666667     0.373973333333     0.905170000000     0          
O        O      0.924390000000     0.576630000000     0.068720000000     0          
O        O      0.979700000000     0.626066666667     0.094430000000     0          
O        O      0.812540000000     0.459606666667     0.569200000000     0          
O        O      0.868596666667     0.464736666667     0.593340000000     0          
O        O      0.853503333333     0.541006666667     0.430850000000     0          
O        O      0.798096666667     0.535236666667     0.405230000000     0          
O        O      0.777780000000     0.388890000000     0.928340000000     0          
O        O      0.777863333333     0.351140000000     0.887540000000     0          
O        O      0.888193333333     0.610763333333     0.070900000000     0          
O        O      0.889346666667     0.648543333333     0.112090000000     0          
O        O      0.686893333333     0.646440000000     0.820040000000     0          
O        O      0.979786666667     0.353546666667     0.179690000000     0          
O        O      0.929340000000     0.464670000000     0.820090000000     0          
O        O      0.737360000000     0.535346666667     0.178660000000     0          
O        O      0.944413333333     0.555493333333     0.846680000000     0          
O        O      0.908790000000     0.590526666667     0.844490000000     0          
O        O      0.873763333333     0.520640000000     0.844400000000     0          
O        O      0.722360000000     0.444720000000     0.153320000000     0          
O        O      0.757753333333     0.409406666667     0.155160000000     0          
O        O      0.793086666667     0.479223333333     0.154870000000     0          
O        O      0.718826666667     0.437653333333     0.800020000000     0          
O        O      0.947826666667     0.562320000000     0.199600000000     0          
O        O      0.836766666667     0.340200000000     0.799900000000     0          
O        O      0.829806666667     0.659613333333     0.199480000000     0          
O        O      0.826820000000     0.653640000000     0.749670000000     0          
O        O      0.777803333333     0.616200000000     0.785650000000     0          
O        O      0.828260000000     0.383766666667     0.213800000000     0          
O        O      0.937900000000     0.542466666667     0.249770000000     0          
Si       Si     0.758030000000     0.444463333333     0.419450000000     0          
Si       Si     0.908856666667     0.555703333333     0.580170000000     0          
Si       Si     0.686453333333     0.575316666667     0.355620000000     0          
Si       Si     0.980140000000     0.424516666667     0.644030000000     0          
Si       Si     0.967160000000     0.366173333333     0.431180000000     0          
Si       Si     0.699406666667     0.633926666667     0.568340000000     0          
Si       Si     0.710786666667     0.522060000000     0.068100000000     0          
Si       Si     0.954566666667     0.477283333333     0.931240000000     0          
Si       Si     0.958850000000     0.374483333333     0.327460000000     0          
Si       Si     0.707790000000     0.625543333333     0.672200000000     0          
Si       Si     0.818946666667     0.514386666667     0.327390000000     0          
Si       Si     0.847663333333     0.485670000000     0.671850000000     0          
Si       Si     0.846696666667     0.486636666667     0.279980000000     0          
Si       Si     0.820026666667     0.513306666667     0.719340000000     0          
Si       Si     0.735613333333     0.597720000000     0.780080000000     0          
Si       Si     0.931013333333     0.402320000000     0.219490000000     0          
O        O      0.707273333333     0.353636666667     0.457170000000     0          
O        O      0.959433333333     0.646383333333     0.542270000000     0          
O        O      0.798086666667     0.596173333333     0.457230000000     0          
O        O      0.866973333333     0.400613333333     0.541160000000     0          
O        O      0.985450000000     0.409056666667     0.430780000000     0          
O        O      0.979680000000     0.353653333333     0.405170000000     0          
O        O      0.681093333333     0.591056666667     0.568720000000     0          
O        O      0.686966666667     0.646366666667     0.594430000000     0          
O        O      0.686266666667     0.479206666667     0.069200000000     0          
O        O      0.737193333333     0.535263333333     0.093340000000     0          
O        O      0.979163333333     0.520170000000     0.930850000000     0          
O        O      0.929526666667     0.464763333333     0.905230000000     0          
O        O      0.722223333333     0.444446666667     0.428340000000     0          
O        O      0.760056666667     0.444530000000     0.387540000000     0          
O        O      0.944096666667     0.554860000000     0.570900000000     0          
O        O      0.907470000000     0.556013333333     0.612090000000     0          
O        O      0.707120000000     0.353560000000     0.320040000000     0          
O        O      0.959573333333     0.646453333333     0.679690000000     0          
O        O      0.798003333333     0.596006666667     0.320090000000     0          
O        O      0.868680000000     0.404026666667     0.678660000000     0          
O        O      0.722253333333     0.611080000000     0.346680000000     0          
O        O      0.984930000000     0.575456666667     0.344490000000     0          
O        O      0.686456666667     0.540430000000     0.344400000000     0          
O        O      0.944306666667     0.389026666667     0.653320000000     0          
O        O      0.681680000000     0.424420000000     0.655160000000     0          
O        O      0.980530000000     0.459753333333     0.654870000000     0          
O        O      0.947840000000     0.385493333333     0.300020000000     0          
O        O      0.718840000000     0.614493333333     0.699600000000     0          
O        O      0.829900000000     0.503433333333     0.299900000000     0          
O        O      0.836860000000     0.496473333333     0.699480000000     0          
O        O      0.839846666667     0.493486666667     0.249670000000     0          
O        O      0.828270000000     0.444470000000     0.285650000000     0          
O        O      0.777826666667     0.494926666667     0.713800000000     0          
O        O      0.728766666667     0.604566666667     0.749770000000     0          
Si       Si     0.980233333333     0.424696666667     0.919450000000     0          
Si       Si     0.686486666667     0.575523333333     0.080170000000     0          
Si       Si     0.777803333333     0.353120000000     0.855620000000     0          
Si       Si     0.888956666667     0.646806666667     0.144030000000     0          
Si       Si     0.934320000000     0.633826666667     0.931180000000     0          
Si       Si     0.732146666667     0.366073333333     0.068340000000     0          
Si       Si     0.855393333333     0.377453333333     0.568100000000     0          
Si       Si     0.810616666667     0.621233333333     0.431240000000     0          
Si       Si     0.917700000000     0.625516666667     0.827460000000     0          
Si       Si     0.748913333333     0.374456666667     0.172200000000     0          
Si       Si     0.971226666667     0.485613333333     0.827390000000     0          
Si       Si     0.695326666667     0.514330000000     0.171850000000     0          
Si       Si     0.693393333333     0.513363333333     0.779980000000     0          
Si       Si     0.973386666667     0.486693333333     0.219340000000     0          
Si       Si     0.804560000000     0.402280000000     0.280080000000     0          
Si       Si     0.862026666667     0.597680000000     0.719490000000     0          
O        O      0.686970000000     0.373940000000     0.957170000000     0          
O        O      0.979716666667     0.626100000000     0.042270000000     0          
O        O      0.868580000000     0.464753333333     0.957230000000     0          
O        O      0.799693333333     0.533640000000     0.041160000000     0          
O        O      0.909726666667     0.652116666667     0.930780000000     0          
O        O      0.959360000000     0.646346666667     0.905170000000     0          
O        O      0.756703333333     0.347760000000     0.068720000000     0          
O        O      0.707266666667     0.353633333333     0.094430000000     0          
O        O      0.873726666667     0.352933333333     0.569200000000     0          
O        O      0.868596666667     0.403860000000     0.593340000000     0          
O        O      0.792326666667     0.645830000000     0.430850000000     0          
O        O      0.798096666667     0.596193333333     0.405230000000     0          
O        O      0.944443333333     0.388890000000     0.928340000000     0          
O        O      0.982193333333     0.426723333333     0.887540000000     0          
O        O      0.722570000000     0.610763333333     0.070900000000     0          
O        O      0.684790000000     0.574136666667     0.112090000000     0          
O        O      0.686893333333     0.373786666667     0.820040000000     0          
O        O      0.979786666667     0.626240000000     0.179690000000     0          
O        O      0.868663333333     0.464670000000     0.820090000000     0          
O        O      0.797986666667     0.535346666667     0.178660000000     0          
O        O      0.777840000000     0.388920000000     0.846680000000     0          
O        O      0.742806666667     0.651596666667     0.844490000000     0          
O        O      0.812693333333     0.353123333333     0.844400000000     0          
O        O      0.888613333333     0.610973333333     0.153320000000     0          
O        O      0.923926666667     0.348346666667     0.155160000000     0          
O        O      0.854110000000     0.647196666667     0.154870000000     0          
O        O      0.895680000000     0.614506666667     0.800020000000     0          
O        O      0.771013333333     0.385506666667     0.199600000000     0          
O        O      0.993133333333     0.496566666667     0.799900000000     0          
O        O      0.673720000000     0.503526666667     0.199480000000     0          
O        O      0.679693333333     0.506513333333     0.749670000000     0          
O        O      0.717133333333     0.494936666667     0.785650000000     0          
O        O      0.949566666667     0.444493333333     0.213800000000     0          
O        O      0.790866666667     0.395433333333     0.249770000000     0          
Si       Si     0.888870000000     0.646900000000     0.419450000000     0          
Si       Si     0.777630000000     0.353153333333     0.580170000000     0          
Si       Si     0.758016666667     0.444470000000     0.355620000000     0          
Si       Si     0.908816666667     0.555623333333     0.644030000000     0          
Si       Si     0.967160000000     0.600986666667     0.431180000000     0          
Si       Si     0.699406666667     0.398813333333     0.568340000000     0          
Si       Si     0.811273333333     0.522060000000     0.068100000000     0          
Si       Si     0.856050000000     0.477283333333     0.931240000000     0          
Si       Si     0.958850000000     0.584366666667     0.327460000000     0          
Si       Si     0.707790000000     0.415580000000     0.672200000000     0          
Si       Si     0.818946666667     0.637893333333     0.327390000000     0          
Si       Si     0.847663333333     0.361993333333     0.671850000000     0          
Si       Si     0.846696666667     0.360060000000     0.279980000000     0          
Si       Si     0.820026666667     0.640053333333     0.719340000000     0          
Si       Si     0.735613333333     0.471226666667     0.780080000000     0          
Si       Si     0.931013333333     0.528693333333     0.219490000000     0          
O        O      0.979696666667     0.353636666667     0.457170000000     0          
O        O      0.686950000000     0.646383333333     0.542270000000     0          
O        O      0.737160000000     0.535246666667     0.457230000000     0          
O        O      0.932720000000     0.466360000000     0.541160000000     0          
O        O      0.924276666667     0.576393333333     0.430780000000     0          
O        O      0.979680000000     0.626026666667     0.405170000000     0          
O        O      0.742276666667     0.423370000000     0.568720000000     0          
O        O      0.686966666667     0.373933333333     0.594430000000     0          
O        O      0.854126666667     0.540393333333     0.069200000000     0          
O        O      0.798070000000     0.535263333333     0.093340000000     0          
O        O      0.813163333333     0.458993333333     0.930850000000     0          
O        O      0.868570000000     0.464763333333     0.905230000000     0          
O        O      0.888886666667     0.611110000000     0.428340000000     0          
O        O      0.888803333333     0.648860000000     0.387540000000     0          
O        O      0.778473333333     0.389236666667     0.570900000000     0          
O        O      0.777320000000     0.351456666667     0.612090000000     0          
O        O      0.979773333333     0.353560000000     0.320040000000     0          
O        O      0.686880000000     0.646453333333     0.679690000000     0          
O        O      0.737326666667     0.535330000000     0.320090000000     0          
O        O      0.929306666667     0.464653333333     0.678660000000     0          
O        O      0.722253333333     0.444506666667     0.346680000000     0          
O        O      0.757876666667     0.409473333333     0.344490000000     0          
O        O      0.792903333333     0.479360000000     0.344400000000     0          
O        O      0.944306666667     0.555280000000     0.653320000000     0          
O        O      0.908913333333     0.590593333333     0.655160000000     0          
O        O      0.873580000000     0.520776666667     0.654870000000     0          
O        O      0.947840000000     0.562346666667     0.300020000000     0          
O        O      0.718840000000     0.437680000000     0.699600000000     0          
O        O      0.829900000000     0.659800000000     0.299900000000     0          
O        O      0.836860000000     0.340386666667     0.699480000000     0          
O        O      0.839846666667     0.346360000000     0.249670000000     0          
O        O      0.888863333333     0.383800000000     0.285650000000     0          
O        O      0.838406666667     0.616233333333     0.713800000000     0          
O        O      0.728766666667     0.457533333333     0.749770000000     0          
Si       Si     0.888870000000     0.575303333333     0.419450000000     0          
Si       Si     0.777630000000     0.424476666667     0.580170000000     0          
Si       Si     0.758016666667     0.646880000000     0.355620000000     0          
Si       Si     0.908816666667     0.353193333333     0.644030000000     0          
O        O      0.924276666667     0.347883333333     0.430780000000     0          
O        O      0.742276666667     0.652240000000     0.568720000000     0          
O        O      0.854126666667     0.647066666667     0.069200000000     0          
O        O      0.813163333333     0.354170000000     0.930850000000     0          
O        O      0.888803333333     0.573276666667     0.387540000000     0          
O        O      0.777320000000     0.425863333333     0.612090000000     0          
O        O      0.757876666667     0.348403333333     0.344490000000     0          
O        O      0.792903333333     0.646876666667     0.344400000000     0          
O        O      0.908913333333     0.651653333333     0.655160000000     0          
O        O      0.873580000000     0.352803333333     0.654870000000     0          
O        O      0.888863333333     0.505063333333     0.285650000000     0          
O        O      0.838406666667     0.555506666667     0.713800000000     0          
Si       Si     0.980233333333     0.555536666667     0.919450000000     0          
Si       Si     0.686486666667     0.444296666667     0.080170000000     0          
Si       Si     0.777803333333     0.424683333333     0.855620000000     0          
Si       Si     0.888956666667     0.575483333333     0.144030000000     0          
O        O      0.909726666667     0.590943333333     0.930780000000     0          
O        O      0.756703333333     0.408943333333     0.068720000000     0          
O        O      0.873726666667     0.520793333333     0.569200000000     0          
O        O      0.792326666667     0.479830000000     0.430850000000     0          
O        O      0.982193333333     0.555470000000     0.887540000000     0          
O        O      0.684790000000     0.443986666667     0.112090000000     0          
O        O      0.742806666667     0.424543333333     0.844490000000     0          
O        O      0.812693333333     0.459570000000     0.844400000000     0          
O        O      0.923926666667     0.575580000000     0.155160000000     0          
O        O      0.854110000000     0.540246666667     0.154870000000     0          
O        O      0.717133333333     0.555530000000     0.785650000000     0          
O        O      0.949566666667     0.505073333333     0.213800000000     0          
Si       Si     0.758030000000     0.646900000000     0.419450000000     0          
Si       Si     0.908856666667     0.353153333333     0.580170000000     0          
Si       Si     0.686453333333     0.444470000000     0.355620000000     0          
Si       Si     0.980140000000     0.555623333333     0.644030000000     0          
O        O      0.985450000000     0.576393333333     0.430780000000     0          
O        O      0.681093333333     0.423370000000     0.568720000000     0          
O        O      0.686266666667     0.540393333333     0.069200000000     0          
O        O      0.979163333333     0.458993333333     0.930850000000     0          
O        O      0.760056666667     0.648860000000     0.387540000000     0          
O        O      0.907470000000     0.351456666667     0.612090000000     0          
O        O      0.984930000000     0.409473333333     0.344490000000     0          
O        O      0.686456666667     0.479360000000     0.344400000000     0          
O        O      0.681680000000     0.590593333333     0.655160000000     0          
O        O      0.980530000000     0.520776666667     0.654870000000     0          
O        O      0.828270000000     0.383800000000     0.285650000000     0          
O        O      0.777826666667     0.616233333333     0.713800000000     0          
Si       Si     0.777796666667     0.424696666667     0.919450000000     0          
Si       Si     0.889036666667     0.575523333333     0.080170000000     0          
Si       Si     0.908650000000     0.353120000000     0.855620000000     0          
Si       Si     0.757850000000     0.646806666667     0.144030000000     0          
O        O      0.742390000000     0.652116666667     0.930780000000     0          
O        O      0.924390000000     0.347760000000     0.068720000000     0          
O        O      0.812540000000     0.352933333333     0.569200000000     0          
O        O      0.853503333333     0.645830000000     0.430850000000     0          
O        O      0.777863333333     0.426723333333     0.887540000000     0          
O        O      0.889346666667     0.574136666667     0.112090000000     0          
O        O      0.908790000000     0.651596666667     0.844490000000     0          
O        O      0.873763333333     0.353123333333     0.844400000000     0          
O        O      0.757753333333     0.348346666667     0.155160000000     0          
O        O      0.793086666667     0.647196666667     0.154870000000     0          
O        O      0.777803333333     0.494936666667     0.785650000000     0          
O        O      0.828260000000     0.444493333333     0.213800000000     0          
Si       Si     0.686433333333     0.444463333333     0.419450000000     0          
Si       Si     0.980180000000     0.555703333333     0.580170000000     0          
Si       Si     0.888863333333     0.575316666667     0.355620000000     0          
Si       Si     0.777710000000     0.424516666667     0.644030000000     0          
O        O      0.756940000000     0.409056666667     0.430780000000     0          
O        O      0.909963333333     0.591056666667     0.568720000000     0          
O        O      0.792940000000     0.479206666667     0.069200000000     0          
O        O      0.874340000000     0.520170000000     0.930850000000     0          
O        O      0.684473333333     0.444530000000     0.387540000000     0          
O        O      0.981876666667     0.556013333333     0.612090000000     0          
O        O      0.923860000000     0.575456666667     0.344490000000     0          
O        O      0.853973333333     0.540430000000     0.344400000000     0          
O        O      0.742740000000     0.424420000000     0.655160000000     0          
O        O      0.812556666667     0.459753333333     0.654870000000     0          
O        O      0.949533333333     0.444470000000     0.285650000000     0          
O        O      0.717100000000     0.494926666667     0.713800000000     0          
Si       Si     0.908636666667     0.353100000000     0.919450000000     0          
Si       Si     0.757810000000     0.646846666667     0.080170000000     0          
Si       Si     0.980213333333     0.555530000000     0.855620000000     0          
Si       Si     0.686526666667     0.444376666667     0.144030000000     0          
O        O      0.681216666667     0.423606666667     0.930780000000     0          
O        O      0.985573333333     0.576630000000     0.068720000000     0          
O        O      0.980400000000     0.459606666667     0.569200000000     0          
O        O      0.687503333333     0.541006666667     0.430850000000     0          
O        O      0.906610000000     0.351140000000     0.887540000000     0          
O        O      0.759196666667     0.648543333333     0.112090000000     0          
O        O      0.681736666667     0.590526666667     0.844490000000     0          
O        O      0.980210000000     0.520640000000     0.844400000000     0          
O        O      0.984986666667     0.409406666667     0.155160000000     0          
O        O      0.686136666667     0.479223333333     0.154870000000     0          
O        O      0.838396666667     0.616200000000     0.785650000000     0          
O        O      0.888840000000     0.383766666667     0.213800000000     0          
Si       Si     0.908636666667     0.888870000000     0.919450000000     0          
Si       Si     0.757810000000     0.777630000000     0.080170000000     0          
Si       Si     0.980213333333     0.758016666667     0.855620000000     0          
Si       Si     0.686526666667     0.908816666667     0.144030000000     0          
Si       Si     0.699506666667     0.967160000000     0.931180000000     0          
Si       Si     0.967260000000     0.699406666667     0.068340000000     0          
Si       Si     0.955880000000     0.811273333333     0.568100000000     0          
Si       Si     0.712100000000     0.856050000000     0.431240000000     0          
Si       Si     0.707816666667     0.958850000000     0.827460000000     0          
Si       Si     0.958876666667     0.707790000000     0.172200000000     0          
Si       Si     0.847720000000     0.818946666667     0.827390000000     0          
Si       Si     0.819003333333     0.847663333333     0.171850000000     0          
Si       Si     0.819970000000     0.846696666667     0.779980000000     0          
Si       Si     0.846640000000     0.820026666667     0.219340000000     0          
Si       Si     0.931053333333     0.735613333333     0.280080000000     0          
Si       Si     0.735653333333     0.931013333333     0.719490000000     0          
Si       Si     0.777776666667     0.888890000000     0.467790000000     0          
Si       Si     0.777776666667     0.888890000000     0.103910000000     0          
Si       Si     0.888890000000     0.777776666667     0.894750000000     0          
Si       Si     0.888890000000     0.777776666667     0.830890000000     0          
Si       Si     0.777776666667     0.888890000000     0.167770000000     0          
Si       Si     0.666666666667     0.666666666667     0.967750000000     0          
Si       Si     0.666666666667     0.666666666667     0.031620000000     0          
Si       Si     0.666666666667     0.666666666667     0.894700000000     0          
Si       Si     0.666666666667     0.666666666667     0.104980000000     0          
Si       Si     0.666666666667     0.666666666667     0.830840000000     0          
Si       Si     0.666666666667     0.666666666667     0.168840000000     0          
O        O      0.959393333333     0.979696666667     0.957170000000     0          
O        O      0.666666666667     0.666666666667     0.999690000000     0          
O        O      0.707233333333     0.686950000000     0.042270000000     0          
O        O      0.868580000000     0.737160000000     0.957230000000     0          
O        O      0.777776666667     0.888890000000     0.499760000000     0          
O        O      0.799693333333     0.932720000000     0.041160000000     0          
O        O      0.681216666667     0.924276666667     0.930780000000     0          
O        O      0.686986666667     0.979680000000     0.905170000000     0          
O        O      0.985573333333     0.742276666667     0.068720000000     0          
O        O      0.979700000000     0.686966666667     0.094430000000     0          
O        O      0.980400000000     0.854126666667     0.569200000000     0          
O        O      0.929473333333     0.798070000000     0.593340000000     0          
O        O      0.687503333333     0.813163333333     0.430850000000     0          
O        O      0.737140000000     0.868570000000     0.405230000000     0          
O        O      0.944443333333     0.888886666667     0.928340000000     0          
O        O      0.906610000000     0.888803333333     0.887540000000     0          
O        O      0.722570000000     0.778473333333     0.070900000000     0          
O        O      0.759196666667     0.777320000000     0.112090000000     0          
O        O      0.666666666667     0.666666666667     0.862770000000     0          
O        O      0.666666666667     0.666666666667     0.136910000000     0          
O        O      0.888890000000     0.777776666667     0.862820000000     0          
O        O      0.777776666667     0.888890000000     0.135850000000     0          
O        O      0.959546666667     0.979773333333     0.820040000000     0          
O        O      0.707093333333     0.686880000000     0.179690000000     0          
O        O      0.868663333333     0.737326666667     0.820090000000     0          
O        O      0.797986666667     0.929306666667     0.178660000000     0          
O        O      0.944413333333     0.722253333333     0.846680000000     0          
O        O      0.681736666667     0.757876666667     0.844490000000     0          
O        O      0.980210000000     0.792903333333     0.844400000000     0          
O        O      0.722360000000     0.944306666667     0.153320000000     0          
O        O      0.984986666667     0.908913333333     0.155160000000     0          
O        O      0.686136666667     0.873580000000     0.154870000000     0          
O        O      0.718826666667     0.947840000000     0.800020000000     0          
O        O      0.947826666667     0.718840000000     0.199600000000     0          
O        O      0.836766666667     0.829900000000     0.799900000000     0          
O        O      0.829806666667     0.836860000000     0.199480000000     0          
O        O      0.826820000000     0.839846666667     0.749670000000     0          
O        O      0.838396666667     0.888863333333     0.785650000000     0          
O        O      0.888840000000     0.838406666667     0.213800000000     0          
O        O      0.937900000000     0.728766666667     0.249770000000     0          
Si       Si     0.686433333333     0.908636666667     0.419450000000     0          
Si       Si     0.980180000000     0.757810000000     0.580170000000     0          
Si       Si     0.888863333333     0.980213333333     0.355620000000     0          
Si       Si     0.777710000000     0.686526666667     0.644030000000     0          
Si       Si     0.732346666667     0.699506666667     0.431180000000     0          
Si       Si     0.934520000000     0.967260000000     0.568340000000     0          
Si       Si     0.811273333333     0.955880000000     0.068100000000     0          
Si       Si     0.856050000000     0.712100000000     0.931240000000     0          
Si       Si     0.748966666667     0.707816666667     0.327460000000     0          
Si       Si     0.917753333333     0.958876666667     0.672200000000     0          
Si       Si     0.695440000000     0.847720000000     0.327390000000     0          
Si       Si     0.971340000000     0.819003333333     0.671850000000     0          
Si       Si     0.973273333333     0.819970000000     0.279980000000     0          
Si       Si     0.693280000000     0.846640000000     0.719340000000     0          
Si       Si     0.862106666667     0.931053333333     0.780080000000     0          
Si       Si     0.804640000000     0.735653333333     0.219490000000     0          
Si       Si     0.888886666667     0.777776666667     0.967790000000     0          
Si       Si     0.888886666667     0.777776666667     0.603910000000     0          
Si       Si     0.777780000000     0.888890000000     0.394750000000     0          
Si       Si     0.777780000000     0.888890000000     0.330890000000     0          
Si       Si     0.888886666667     0.777776666667     0.667770000000     0          
Si       Si     0.666666666667     0.666666666667     0.467750000000     0          
Si       Si     0.666666666667     0.666666666667     0.531620000000     0          
Si       Si     0.666666666667     0.666666666667     0.394700000000     0          
Si       Si     0.666666666667     0.666666666667     0.604980000000     0          
Si       Si     0.666666666667     0.666666666667     0.330840000000     0          
Si       Si     0.666666666667     0.666666666667     0.668840000000     0          
O        O      0.979696666667     0.959393333333     0.457170000000     0          
O        O      0.666666666667     0.666666666667     0.499690000000     0          
O        O      0.686950000000     0.707233333333     0.542270000000     0          
O        O      0.798086666667     0.868580000000     0.457230000000     0          
O        O      0.888886666667     0.777776666667     0.999760000000     0          
O        O      0.866973333333     0.799693333333     0.541160000000     0          
O        O      0.756940000000     0.681216666667     0.430780000000     0          
O        O      0.707306666667     0.686986666667     0.405170000000     0          
O        O      0.909963333333     0.985573333333     0.568720000000     0          
O        O      0.959400000000     0.979700000000     0.594430000000     0          
O        O      0.792940000000     0.980400000000     0.069200000000     0          
O        O      0.798070000000     0.929473333333     0.093340000000     0          
O        O      0.874340000000     0.687503333333     0.930850000000     0          
O        O      0.868570000000     0.737140000000     0.905230000000     0          
O        O      0.722223333333     0.944443333333     0.428340000000     0          
O        O      0.684473333333     0.906610000000     0.387540000000     0          
O        O      0.944096666667     0.722570000000     0.570900000000     0          
O        O      0.981876666667     0.759196666667     0.612090000000     0          
O        O      0.666666666667     0.666666666667     0.362770000000     0          
O        O      0.666666666667     0.666666666667     0.636910000000     0          
O        O      0.777780000000     0.888890000000     0.362820000000     0          
O        O      0.888886666667     0.777776666667     0.635850000000     0          
O        O      0.979773333333     0.959546666667     0.320040000000     0          
O        O      0.686880000000     0.707093333333     0.679690000000     0          
O        O      0.798003333333     0.868663333333     0.320090000000     0          
O        O      0.868680000000     0.797986666667     0.678660000000     0          
O        O      0.888826666667     0.944413333333     0.346680000000     0          
O        O      0.923860000000     0.681736666667     0.344490000000     0          
O        O      0.853973333333     0.980210000000     0.344400000000     0          
O        O      0.778053333333     0.722360000000     0.653320000000     0          
O        O      0.742740000000     0.984986666667     0.655160000000     0          
O        O      0.812556666667     0.686136666667     0.654870000000     0          
O        O      0.770986666667     0.718826666667     0.300020000000     0          
O        O      0.895653333333     0.947826666667     0.699600000000     0          
O        O      0.673533333333     0.836766666667     0.299900000000     0          
O        O      0.992946666667     0.829806666667     0.699480000000     0          
O        O      0.986973333333     0.826820000000     0.249670000000     0          
O        O      0.949533333333     0.838396666667     0.285650000000     0          
O        O      0.717100000000     0.888840000000     0.713800000000     0          
O        O      0.875800000000     0.937900000000     0.749770000000     0          
Si       Si     0.777796666667     0.686433333333     0.919450000000     0          
Si       Si     0.889036666667     0.980180000000     0.080170000000     0          
Si       Si     0.908650000000     0.888863333333     0.855620000000     0          
Si       Si     0.757850000000     0.777710000000     0.144030000000     0          
Si       Si     0.699506666667     0.732346666667     0.931180000000     0          
Si       Si     0.967260000000     0.934520000000     0.068340000000     0          
Si       Si     0.855393333333     0.811273333333     0.568100000000     0          
Si       Si     0.810616666667     0.856050000000     0.431240000000     0          
Si       Si     0.707816666667     0.748966666667     0.827460000000     0          
Si       Si     0.958876666667     0.917753333333     0.172200000000     0          
Si       Si     0.847720000000     0.695440000000     0.827390000000     0          
Si       Si     0.819003333333     0.971340000000     0.171850000000     0          
Si       Si     0.819970000000     0.973273333333     0.779980000000     0          
Si       Si     0.846640000000     0.693280000000     0.219340000000     0          
Si       Si     0.931053333333     0.862106666667     0.280080000000     0          
Si       Si     0.735653333333     0.804640000000     0.719490000000     0          
O        O      0.686970000000     0.979696666667     0.957170000000     0          
O        O      0.979716666667     0.686950000000     0.042270000000     0          
O        O      0.929506666667     0.798086666667     0.957230000000     0          
O        O      0.733946666667     0.866973333333     0.041160000000     0          
O        O      0.742390000000     0.756940000000     0.930780000000     0          
O        O      0.686986666667     0.707306666667     0.905170000000     0          
O        O      0.924390000000     0.909963333333     0.068720000000     0          
O        O      0.979700000000     0.959400000000     0.094430000000     0          
O        O      0.812540000000     0.792940000000     0.569200000000     0          
O        O      0.868596666667     0.798070000000     0.593340000000     0          
O        O      0.853503333333     0.874340000000     0.430850000000     0          
O        O      0.798096666667     0.868570000000     0.405230000000     0          
O        O      0.777780000000     0.722223333333     0.928340000000     0          
O        O      0.777863333333     0.684473333333     0.887540000000     0          
O        O      0.888193333333     0.944096666667     0.070900000000     0          
O        O      0.889346666667     0.981876666667     0.112090000000     0          
O        O      0.686893333333     0.979773333333     0.820040000000     0          
O        O      0.979786666667     0.686880000000     0.179690000000     0          
O        O      0.929340000000     0.798003333333     0.820090000000     0          
O        O      0.737360000000     0.868680000000     0.178660000000     0          
O        O      0.944413333333     0.888826666667     0.846680000000     0          
O        O      0.908790000000     0.923860000000     0.844490000000     0          
O        O      0.873763333333     0.853973333333     0.844400000000     0          
O        O      0.722360000000     0.778053333333     0.153320000000     0          
O        O      0.757753333333     0.742740000000     0.155160000000     0          
O        O      0.793086666667     0.812556666667     0.154870000000     0          
O        O      0.718826666667     0.770986666667     0.800020000000     0          
O        O      0.947826666667     0.895653333333     0.199600000000     0          
O        O      0.836766666667     0.673533333333     0.799900000000     0          
O        O      0.829806666667     0.992946666667     0.199480000000     0          
O        O      0.826820000000     0.986973333333     0.749670000000     0          
O        O      0.777803333333     0.949533333333     0.785650000000     0          
O        O      0.828260000000     0.717100000000     0.213800000000     0          
O        O      0.937900000000     0.875800000000     0.249770000000     0          
Si       Si     0.758030000000     0.777796666667     0.419450000000     0          
Si       Si     0.908856666667     0.889036666667     0.580170000000     0          
Si       Si     0.686453333333     0.908650000000     0.355620000000     0          
Si       Si     0.980140000000     0.757850000000     0.644030000000     0          
Si       Si     0.967160000000     0.699506666667     0.431180000000     0          
Si       Si     0.699406666667     0.967260000000     0.568340000000     0          
Si       Si     0.710786666667     0.855393333333     0.068100000000     0          
Si       Si     0.954566666667     0.810616666667     0.931240000000     0          
Si       Si     0.958850000000     0.707816666667     0.327460000000     0          
Si       Si     0.707790000000     0.958876666667     0.672200000000     0          
Si       Si     0.818946666667     0.847720000000     0.327390000000     0          
Si       Si     0.847663333333     0.819003333333     0.671850000000     0          
Si       Si     0.846696666667     0.819970000000     0.279980000000     0          
Si       Si     0.820026666667     0.846640000000     0.719340000000     0          
Si       Si     0.735613333333     0.931053333333     0.780080000000     0          
Si       Si     0.931013333333     0.735653333333     0.219490000000     0          
O        O      0.707273333333     0.686970000000     0.457170000000     0          
O        O      0.959433333333     0.979716666667     0.542270000000     0          
O        O      0.798086666667     0.929506666667     0.457230000000     0          
O        O      0.866973333333     0.733946666667     0.541160000000     0          
O        O      0.985450000000     0.742390000000     0.430780000000     0          
O        O      0.979680000000     0.686986666667     0.405170000000     0          
O        O      0.681093333333     0.924390000000     0.568720000000     0          
O        O      0.686966666667     0.979700000000     0.594430000000     0          
O        O      0.686266666667     0.812540000000     0.069200000000     0          
O        O      0.737193333333     0.868596666667     0.093340000000     0          
O        O      0.979163333333     0.853503333333     0.930850000000     0          
O        O      0.929526666667     0.798096666667     0.905230000000     0          
O        O      0.722223333333     0.777780000000     0.428340000000     0          
O        O      0.760056666667     0.777863333333     0.387540000000     0          
O        O      0.944096666667     0.888193333333     0.570900000000     0          
O        O      0.907470000000     0.889346666667     0.612090000000     0          
O        O      0.707120000000     0.686893333333     0.320040000000     0          
O        O      0.959573333333     0.979786666667     0.679690000000     0          
O        O      0.798003333333     0.929340000000     0.320090000000     0          
O        O      0.868680000000     0.737360000000     0.678660000000     0          
O        O      0.722253333333     0.944413333333     0.346680000000     0          
O        O      0.984930000000     0.908790000000     0.344490000000     0          
O        O      0.686456666667     0.873763333333     0.344400000000     0          
O        O      0.944306666667     0.722360000000     0.653320000000     0          
O        O      0.681680000000     0.757753333333     0.655160000000     0          
O        O      0.980530000000     0.793086666667     0.654870000000     0          
O        O      0.947840000000     0.718826666667     0.300020000000     0          
O        O      0.718840000000     0.947826666667     0.699600000000     0          
O        O      0.829900000000     0.836766666667     0.299900000000     0          
O        O      0.836860000000     0.829806666667     0.699480000000     0          
O        O      0.839846666667     0.826820000000     0.249670000000     0          
O        O      0.828270000000     0.777803333333     0.285650000000     0          
O        O      0.777826666667     0.828260000000     0.713800000000     0          
O        O      0.728766666667     0.937900000000     0.749770000000     0          
Si       Si     0.980233333333     0.758030000000     0.919450000000     0          
Si       Si     0.686486666667     0.908856666667     0.080170000000     0          
Si       Si     0.777803333333     0.686453333333     0.855620000000     0          
Si       Si     0.888956666667     0.980140000000     0.144030000000     0          
Si       Si     0.934320000000     0.967160000000     0.931180000000     0          
Si       Si     0.732146666667     0.699406666667     0.068340000000     0          
Si       Si     0.855393333333     0.710786666667     0.568100000000     0          
Si       Si     0.810616666667     0.954566666667     0.431240000000     0          
Si       Si     0.917700000000     0.958850000000     0.827460000000     0          
Si       Si     0.748913333333     0.707790000000     0.172200000000     0          
Si       Si     0.971226666667     0.818946666667     0.827390000000     0          
Si       Si     0.695326666667     0.847663333333     0.171850000000     0          
Si       Si     0.693393333333     0.846696666667     0.779980000000     0          
Si       Si     0.973386666667     0.820026666667     0.219340000000     0          
Si       Si     0.804560000000     0.735613333333     0.280080000000     0          
Si       Si     0.862026666667     0.931013333333     0.719490000000     0          
O        O      0.686970000000     0.707273333333     0.957170000000     0          
O        O      0.979716666667     0.959433333333     0.042270000000     0          
O        O      0.868580000000     0.798086666667     0.957230000000     0          
O        O      0.799693333333     0.866973333333     0.041160000000     0          
O        O      0.909726666667     0.985450000000     0.930780000000     0          
O        O      0.959360000000     0.979680000000     0.905170000000     0          
O        O      0.756703333333     0.681093333333     0.068720000000     0          
O        O      0.707266666667     0.686966666667     0.094430000000     0          
O        O      0.873726666667     0.686266666667     0.569200000000     0          
O        O      0.868596666667     0.737193333333     0.593340000000     0          
O        O      0.792326666667     0.979163333333     0.430850000000     0          
O        O      0.798096666667     0.929526666667     0.405230000000     0          
O        O      0.944443333333     0.722223333333     0.928340000000     0          
O        O      0.982193333333     0.760056666667     0.887540000000     0          
O        O      0.722570000000     0.944096666667     0.070900000000     0          
O        O      0.684790000000     0.907470000000     0.112090000000     0          
O        O      0.686893333333     0.707120000000     0.820040000000     0          
O        O      0.979786666667     0.959573333333     0.179690000000     0          
O        O      0.868663333333     0.798003333333     0.820090000000     0          
O        O      0.797986666667     0.868680000000     0.178660000000     0          
O        O      0.777840000000     0.722253333333     0.846680000000     0          
O        O      0.742806666667     0.984930000000     0.844490000000     0          
O        O      0.812693333333     0.686456666667     0.844400000000     0          
O        O      0.888613333333     0.944306666667     0.153320000000     0          
O        O      0.923926666667     0.681680000000     0.155160000000     0          
O        O      0.854110000000     0.980530000000     0.154870000000     0          
O        O      0.895680000000     0.947840000000     0.800020000000     0          
O        O      0.771013333333     0.718840000000     0.199600000000     0          
O        O      0.993133333333     0.829900000000     0.799900000000     0          
O        O      0.673720000000     0.836860000000     0.199480000000     0          
O        O      0.679693333333     0.839846666667     0.749670000000     0          
O        O      0.717133333333     0.828270000000     0.785650000000     0          
O        O      0.949566666667     0.777826666667     0.213800000000     0          
O        O      0.790866666667     0.728766666667     0.249770000000     0          
Si       Si     0.888870000000     0.980233333333     0.419450000000     0          
Si       Si     0.777630000000     0.686486666667     0.580170000000     0          
Si       Si     0.758016666667     0.777803333333     0.355620000000     0          
Si       Si     0.908816666667     0.888956666667     0.644030000000     0          
Si       Si     0.967160000000     0.934320000000     0.431180000000     0          
Si       Si     0.699406666667     0.732146666667     0.568340000000     0          
Si       Si     0.811273333333     0.855393333333     0.068100000000     0          
Si       Si     0.856050000000     0.810616666667     0.931240000000     0          
Si       Si     0.958850000000     0.917700000000     0.327460000000     0          
Si       Si     0.707790000000     0.748913333333     0.672200000000     0          
Si       Si     0.818946666667     0.971226666667     0.327390000000     0          
Si       Si     0.847663333333     0.695326666667     0.671850000000     0          
Si       Si     0.846696666667     0.693393333333     0.279980000000     0          
Si       Si     0.820026666667     0.973386666667     0.719340000000     0          
Si       Si     0.735613333333     0.804560000000     0.780080000000     0          
Si       Si     0.931013333333     0.862026666667     0.219490000000     0          
O        O      0.979696666667     0.686970000000     0.457170000000     0          
O        O      0.686950000000     0.979716666667     0.542270000000     0          
O        O      0.737160000000     0.868580000000     0.457230000000     0          
O        O      0.932720000000     0.799693333333     0.541160000000     0          
O        O      0.924276666667     0.909726666667     0.430780000000     0          
O        O      0.979680000000     0.959360000000     0.405170000000     0          
O        O      0.742276666667     0.756703333333     0.568720000000     0          
O        O      0.686966666667     0.707266666667     0.594430000000     0          
O        O      0.854126666667     0.873726666667     0.069200000000     0          
O        O      0.798070000000     0.868596666667     0.093340000000     0          
O        O      0.813163333333     0.792326666667     0.930850000000     0          
O        O      0.868570000000     0.798096666667     0.905230000000     0          
O        O      0.888886666667     0.944443333333     0.428340000000     0          
O        O      0.888803333333     0.982193333333     0.387540000000     0          
O        O      0.778473333333     0.722570000000     0.570900000000     0          
O        O      0.777320000000     0.684790000000     0.612090000000     0          
O        O      0.979773333333     0.686893333333     0.320040000000     0          
O        O      0.686880000000     0.979786666667     0.679690000000     0          
O        O      0.737326666667     0.868663333333     0.320090000000     0          
O        O      0.929306666667     0.797986666667     0.678660000000     0          
O        O      0.722253333333     0.777840000000     0.346680000000     0          
O        O      0.757876666667     0.742806666667     0.344490000000     0          
O        O      0.792903333333     0.812693333333     0.344400000000     0          
O        O      0.944306666667     0.888613333333     0.653320000000     0          
O        O      0.908913333333     0.923926666667     0.655160000000     0          
O        O      0.873580000000     0.854110000000     0.654870000000     0          
O        O      0.947840000000     0.895680000000     0.300020000000     0          
O        O      0.718840000000     0.771013333333     0.699600000000     0          
O        O      0.829900000000     0.993133333333     0.299900000000     0          
O        O      0.836860000000     0.673720000000     0.699480000000     0          
O        O      0.839846666667     0.679693333333     0.249670000000     0          
O        O      0.888863333333     0.717133333333     0.285650000000     0          
O        O      0.838406666667     0.949566666667     0.713800000000     0          
O        O      0.728766666667     0.790866666667     0.749770000000     0          
Si       Si     0.888870000000     0.908636666667     0.419450000000     0          
Si       Si     0.777630000000     0.757810000000     0.580170000000     0          
Si       Si     0.758016666667     0.980213333333     0.355620000000     0          
Si       Si     0.908816666667     0.686526666667     0.644030000000     0          
O        O      0.924276666667     0.681216666667     0.430780000000     0          
O        O      0.742276666667     0.985573333333     0.568720000000     0          
O        O      0.854126666667     0.980400000000     0.069200000000     0          
O        O      0.813163333333     0.687503333333     0.930850000000     0          
O        O      0.888803333333     0.906610000000     0.387540000000     0          
O        O      0.777320000000     0.759196666667     0.612090000000     0          
O        O      0.757876666667     0.681736666667     0.344490000000     0          
O        O      0.792903333333     0.980210000000     0.344400000000     0          
O        O      0.908913333333     0.984986666667     0.655160000000     0          
O        O      0.873580000000     0.686136666667     0.654870000000     0          
O        O      0.888863333333     0.838396666667     0.285650000000     0          
O        O      0.838406666667     0.888840000000     0.713800000000     0          
Si       Si     0.980233333333     0.888870000000     0.919450000000     0          
Si       Si     0.686486666667     0.777630000000     0.080170000000     0          
Si       Si     0.777803333333     0.758016666667     0.855620000000     0          
Si       Si     0.888956666667     0.908816666667     0.144030000000     0          
O        O      0.909726666667     0.924276666667     0.930780000000     0          
O        O      0.756703333333     0.742276666667     0.068720000000     0          
O        O      0.873726666667     0.854126666667     0.569200000000     0          
O        O      0.792326666667     0.813163333333     0.430850000000     0          
O        O      0.982193333333     0.888803333333     0.887540000000     0          
O        O      0.684790000000     0.777320000000     0.112090000000     0          
O        O      0.742806666667     0.757876666667     0.844490000000     0          
O        O      0.812693333333     0.792903333333     0.844400000000     0          
O        O      0.923926666667     0.908913333333     0.155160000000     0          
O        O      0.854110000000     0.873580000000     0.154870000000     0          
O        O      0.717133333333     0.888863333333     0.785650000000     0          
O        O      0.949566666667     0.838406666667     0.213800000000     0          
Si       Si     0.758030000000     0.980233333333     0.419450000000     0          
Si       Si     0.908856666667     0.686486666667     0.580170000000     0          
Si       Si     0.686453333333     0.777803333333     0.355620000000     0          
Si       Si     0.980140000000     0.888956666667     0.644030000000     0          
O        O      0.985450000000     0.909726666667     0.430780000000     0          
O        O      0.681093333333     0.756703333333     0.568720000000     0          
O        O      0.686266666667     0.873726666667     0.069200000000     0          
O        O      0.979163333333     0.792326666667     0.930850000000     0          
O        O      0.760056666667     0.982193333333     0.387540000000     0          
O        O      0.907470000000     0.684790000000     0.612090000000     0          
O        O      0.984930000000     0.742806666667     0.344490000000     0          
O        O      0.686456666667     0.812693333333     0.344400000000     0          
O        O      0.681680000000     0.923926666667     0.655160000000     0          
O        O      0.980530000000     0.854110000000     0.654870000000     0          
O        O      0.828270000000     0.717133333333     0.285650000000     0          
O        O      0.777826666667     0.949566666667     0.713800000000     0          
Si       Si     0.777796666667     0.758030000000     0.919450000000     0          
Si       Si     0.889036666667     0.908856666667     0.080170000000     0          
Si       Si     0.908650000000     0.686453333333     0.855620000000     0          
Si       Si     0.757850000000     0.980140000000     0.144030000000     0          
O        O      0.742390000000     0.985450000000     0.930780000000     0          
O        O      0.924390000000     0.681093333333     0.068720000000     0          
O        O      0.812540000000     0.686266666667     0.569200000000     0          
O        O      0.853503333333     0.979163333333     0.430850000000     0          
O        O      0.777863333333     0.760056666667     0.887540000000     0          
O        O      0.889346666667     0.907470000000     0.112090000000     0          
O        O      0.908790000000     0.984930000000     0.844490000000     0          
O        O      0.873763333333     0.686456666667     0.844400000000     0          
O        O      0.757753333333     0.681680000000     0.155160000000     0          
O        O      0.793086666667     0.980530000000     0.154870000000     0          
O        O      0.777803333333     0.828270000000     0.785650000000     0          
O        O      0.828260000000     0.777826666667     0.213800000000     0          
Si       Si     0.686433333333     0.777796666667     0.419450000000     0          
Si       Si     0.980180000000     0.889036666667     0.580170000000     0          
Si       Si     0.888863333333     0.908650000000     0.355620000000     0          
Si       Si     0.777710000000     0.757850000000     0.644030000000     0          
O        O      0.756940000000     0.742390000000     0.430780000000     0          
O        O      0.909963333333     0.924390000000     0.568720000000     0          
O        O      0.792940000000     0.812540000000     0.069200000000     0          
O        O      0.874340000000     0.853503333333     0.930850000000     0          
O        O      0.684473333333     0.777863333333     0.387540000000     0          
O        O      0.981876666667     0.889346666667     0.612090000000     0          
O        O      0.923860000000     0.908790000000     0.344490000000     0          
O        O      0.853973333333     0.873763333333     0.344400000000     0          
O        O      0.742740000000     0.757753333333     0.655160000000     0          
O        O      0.812556666667     0.793086666667     0.654870000000     0          
O        O      0.949533333333     0.777803333333     0.285650000000     0          
O        O      0.717100000000     0.828260000000     0.713800000000     0          
Si       Si     0.908636666667     0.686433333333     0.919450000000     0          
Si       Si     0.757810000000     0.980180000000     0.080170000000     0          
Si       Si     0.980213333333     0.888863333333     0.855620000000     0          
Si       Si     0.686526666667     0.777710000000     0.144030000000     0          
O        O      0.681216666667     0.756940000000     0.930780000000     0          
O        O      0.985573333333     0.909963333333     0.068720000000     0          
O        O      0.980400000000     0.792940000000     0.569200000000     0          
O        O      0.687503333333     0.874340000000     0.430850000000     0          
O        O      0.906610000000     0.684473333333     0.887540000000     0          
O        O      0.759196666667     0.981876666667     0.112090000000     0          
O        O      0.681736666667     0.923860000000     0.844490000000     0          
O        O      0.980210000000     0.853973333333     0.844400000000     0          
O        O      0.984986666667     0.742740000000     0.155160000000     0          
O        O      0.686136666667     0.812556666667     0.154870000000     0          
O        O      0.838396666667     0.949533333333     0.785650000000     0          
O        O      0.888840000000     0.717100000000     0.213800000000     0          


