data_zeolite

_audit_creation_method RASPA-1.0
_audit_creation_date 2021-6-7
_audit_author_name ''

_cell_length_a    13.8761
_cell_length_b    35.745
_cell_length_c    22.4869
_cell_angle_alpha 90
_cell_angle_beta  90
_cell_angle_gamma 90
_cell_volume      44614.1

_symmetry_cell_setting          orthorhombic
_symmetry_space_group_name_Hall 'P 1'
_symmetry_space_group_name_H-M  'P 1'
_symmetry_Int_Tables_number     1

_symmetry_equiv_pos_as_xyz 'x,y,z'

loop_
_atom_site_label
_atom_site_type_symbol
_atom_site_fract_x
_atom_site_fract_y
_atom_site_fract_z
_atom_site_charge
T        Si     0.098300000000     0.074600000000     0.186350000000     0          
T        Si     0.105350000000     0.145100000000     0.092100000000     0          
T        Si     0.093900000000     0.213200000000     0.190100000000     0          
T        Si     0.055200000000     0.176100000000     0.250000000000     0          
T        Si     0.055450000000     0.413900000000     0.000000000000     0          
T        Si     0.105950000000     0.000000000000     0.091250000000     0          
T        Si     0.000000000000     0.075600000000     0.149350000000     0          
T        Si     0.000000000000     0.149700000000     0.111450000000     0          
T        Si     0.000000000000     0.220500000000     0.151950000000     0          
T        Si     0.000000000000     0.000000000000     0.110950000000     0          
T        Si     0.401700000000     0.925400000000     0.186350000000     0          
T        Si     0.394650000000     0.854900000000     0.092100000000     0          
T        Si     0.406100000000     0.786800000000     0.190100000000     0          
T        Si     0.444800000000     0.823900000000     0.250000000000     0          
T        Si     0.444550000000     0.586100000000     0.000000000000     0          
T        Si     0.394050000000     0.000000000000     0.091250000000     0          
T        Si     0.000000000000     0.924400000000     0.149350000000     0          
T        Si     0.000000000000     0.850300000000     0.111450000000     0          
T        Si     0.000000000000     0.779500000000     0.151950000000     0          
T        Si     0.098300000000     0.925400000000     0.313650000000     0          
T        Si     0.105350000000     0.854900000000     0.407900000000     0          
T        Si     0.093900000000     0.786800000000     0.309900000000     0          
T        Si     0.055200000000     0.823900000000     0.250000000000     0          
T        Si     0.055450000000     0.586100000000     0.000000000000     0          
T        Si     0.105950000000     0.000000000000     0.408750000000     0          
T        Si     0.000000000000     0.924400000000     0.350650000000     0          
T        Si     0.000000000000     0.850300000000     0.388550000000     0          
T        Si     0.000000000000     0.779500000000     0.348050000000     0          
T        Si     0.000000000000     0.000000000000     0.389050000000     0          
T        Si     0.401700000000     0.074600000000     0.313650000000     0          
T        Si     0.394650000000     0.145100000000     0.407900000000     0          
T        Si     0.406100000000     0.213200000000     0.309900000000     0          
T        Si     0.444800000000     0.176100000000     0.250000000000     0          
T        Si     0.444550000000     0.413900000000     0.000000000000     0          
T        Si     0.394050000000     0.000000000000     0.408750000000     0          
T        Si     0.000000000000     0.075600000000     0.350650000000     0          
T        Si     0.000000000000     0.149700000000     0.388550000000     0          
T        Si     0.000000000000     0.220500000000     0.348050000000     0          
T        Si     0.401700000000     0.925400000000     0.313650000000     0          
T        Si     0.394650000000     0.854900000000     0.407900000000     0          
T        Si     0.406100000000     0.786800000000     0.309900000000     0          
T        Si     0.098300000000     0.074600000000     0.313650000000     0          
T        Si     0.105350000000     0.145100000000     0.407900000000     0          
T        Si     0.093900000000     0.213200000000     0.309900000000     0          
T        Si     0.401700000000     0.074600000000     0.186350000000     0          
T        Si     0.394650000000     0.145100000000     0.092100000000     0          
T        Si     0.406100000000     0.213200000000     0.190100000000     0          
T        Si     0.098300000000     0.925400000000     0.186350000000     0          
T        Si     0.105350000000     0.854900000000     0.092100000000     0          
T        Si     0.093900000000     0.786800000000     0.190100000000     0          
T        Si     0.098300000000     0.574600000000     0.436350000000     0          
T        Si     0.105350000000     0.645100000000     0.342100000000     0          
T        Si     0.093900000000     0.713200000000     0.440100000000     0          
T        Si     0.055200000000     0.676100000000     0.000000000000     0          
T        Si     0.055450000000     0.913900000000     0.250000000000     0          
T        Si     0.105950000000     0.500000000000     0.341250000000     0          
T        Si     0.000000000000     0.575600000000     0.399350000000     0          
T        Si     0.000000000000     0.649700000000     0.361450000000     0          
T        Si     0.000000000000     0.720500000000     0.401950000000     0          
T        Si     0.000000000000     0.500000000000     0.360950000000     0          
T        Si     0.401700000000     0.425400000000     0.436350000000     0          
T        Si     0.394650000000     0.354900000000     0.342100000000     0          
T        Si     0.406100000000     0.286800000000     0.440100000000     0          
T        Si     0.444800000000     0.323900000000     0.000000000000     0          
T        Si     0.444550000000     0.086100000000     0.250000000000     0          
T        Si     0.394050000000     0.500000000000     0.341250000000     0          
T        Si     0.000000000000     0.424400000000     0.399350000000     0          
T        Si     0.000000000000     0.350300000000     0.361450000000     0          
T        Si     0.000000000000     0.279500000000     0.401950000000     0          
T        Si     0.098300000000     0.425400000000     0.063650000000     0          
T        Si     0.105350000000     0.354900000000     0.157900000000     0          
T        Si     0.093900000000     0.286800000000     0.059900000000     0          
T        Si     0.055200000000     0.323900000000     0.000000000000     0          
T        Si     0.055450000000     0.086100000000     0.250000000000     0          
T        Si     0.105950000000     0.500000000000     0.158750000000     0          
T        Si     0.000000000000     0.424400000000     0.100650000000     0          
T        Si     0.000000000000     0.350300000000     0.138550000000     0          
T        Si     0.000000000000     0.279500000000     0.098050000000     0          
T        Si     0.000000000000     0.500000000000     0.139050000000     0          
T        Si     0.401700000000     0.574600000000     0.063650000000     0          
T        Si     0.394650000000     0.645100000000     0.157900000000     0          
T        Si     0.406100000000     0.713200000000     0.059900000000     0          
T        Si     0.444800000000     0.676100000000     0.000000000000     0          
T        Si     0.444550000000     0.913900000000     0.250000000000     0          
T        Si     0.394050000000     0.500000000000     0.158750000000     0          
T        Si     0.000000000000     0.575600000000     0.100650000000     0          
T        Si     0.000000000000     0.649700000000     0.138550000000     0          
T        Si     0.000000000000     0.720500000000     0.098050000000     0          
T        Si     0.401700000000     0.425400000000     0.063650000000     0          
T        Si     0.394650000000     0.354900000000     0.157900000000     0          
T        Si     0.406100000000     0.286800000000     0.059900000000     0          
T        Si     0.098300000000     0.574600000000     0.063650000000     0          
T        Si     0.105350000000     0.645100000000     0.157900000000     0          
T        Si     0.093900000000     0.713200000000     0.059900000000     0          
T        Si     0.401700000000     0.574600000000     0.436350000000     0          
T        Si     0.394650000000     0.645100000000     0.342100000000     0          
T        Si     0.406100000000     0.713200000000     0.440100000000     0          
T        Si     0.098300000000     0.425400000000     0.436350000000     0          
T        Si     0.105350000000     0.354900000000     0.342100000000     0          
T        Si     0.093900000000     0.286800000000     0.440100000000     0          
T        Si     0.348300000000     0.074600000000     0.436350000000     0          
T        Si     0.355350000000     0.145100000000     0.342100000000     0          
T        Si     0.343900000000     0.213200000000     0.440100000000     0          
T        Si     0.305200000000     0.176100000000     0.000000000000     0          
T        Si     0.305450000000     0.413900000000     0.250000000000     0          
T        Si     0.355950000000     0.000000000000     0.341250000000     0          
T        Si     0.250000000000     0.075600000000     0.399350000000     0          
T        Si     0.250000000000     0.149700000000     0.361450000000     0          
T        Si     0.250000000000     0.220500000000     0.401950000000     0          
T        Si     0.250000000000     0.000000000000     0.360950000000     0          
T        Si     0.151700000000     0.925400000000     0.436350000000     0          
T        Si     0.144650000000     0.854900000000     0.342100000000     0          
T        Si     0.156100000000     0.786800000000     0.440100000000     0          
T        Si     0.194800000000     0.823900000000     0.000000000000     0          
T        Si     0.194550000000     0.586100000000     0.250000000000     0          
T        Si     0.144050000000     0.000000000000     0.341250000000     0          
T        Si     0.250000000000     0.924400000000     0.399350000000     0          
T        Si     0.250000000000     0.850300000000     0.361450000000     0          
T        Si     0.250000000000     0.779500000000     0.401950000000     0          
T        Si     0.348300000000     0.925400000000     0.063650000000     0          
T        Si     0.355350000000     0.854900000000     0.157900000000     0          
T        Si     0.343900000000     0.786800000000     0.059900000000     0          
T        Si     0.305200000000     0.823900000000     0.000000000000     0          
T        Si     0.305450000000     0.586100000000     0.250000000000     0          
T        Si     0.355950000000     0.000000000000     0.158750000000     0          
T        Si     0.250000000000     0.924400000000     0.100650000000     0          
T        Si     0.250000000000     0.850300000000     0.138550000000     0          
T        Si     0.250000000000     0.779500000000     0.098050000000     0          
T        Si     0.250000000000     0.000000000000     0.139050000000     0          
T        Si     0.151700000000     0.074600000000     0.063650000000     0          
T        Si     0.144650000000     0.145100000000     0.157900000000     0          
T        Si     0.156100000000     0.213200000000     0.059900000000     0          
T        Si     0.194800000000     0.176100000000     0.000000000000     0          
T        Si     0.194550000000     0.413900000000     0.250000000000     0          
T        Si     0.144050000000     0.000000000000     0.158750000000     0          
T        Si     0.250000000000     0.075600000000     0.100650000000     0          
T        Si     0.250000000000     0.149700000000     0.138550000000     0          
T        Si     0.250000000000     0.220500000000     0.098050000000     0          
T        Si     0.151700000000     0.925400000000     0.063650000000     0          
T        Si     0.144650000000     0.854900000000     0.157900000000     0          
T        Si     0.156100000000     0.786800000000     0.059900000000     0          
T        Si     0.348300000000     0.074600000000     0.063650000000     0          
T        Si     0.355350000000     0.145100000000     0.157900000000     0          
T        Si     0.343900000000     0.213200000000     0.059900000000     0          
T        Si     0.151700000000     0.074600000000     0.436350000000     0          
T        Si     0.144650000000     0.145100000000     0.342100000000     0          
T        Si     0.156100000000     0.213200000000     0.440100000000     0          
T        Si     0.348300000000     0.925400000000     0.436350000000     0          
T        Si     0.355350000000     0.854900000000     0.342100000000     0          
T        Si     0.343900000000     0.786800000000     0.440100000000     0          
T        Si     0.348300000000     0.574600000000     0.186350000000     0          
T        Si     0.355350000000     0.645100000000     0.092100000000     0          
T        Si     0.343900000000     0.713200000000     0.190100000000     0          
T        Si     0.305200000000     0.676100000000     0.250000000000     0          
T        Si     0.305450000000     0.913900000000     0.000000000000     0          
T        Si     0.355950000000     0.500000000000     0.091250000000     0          
T        Si     0.250000000000     0.575600000000     0.149350000000     0          
T        Si     0.250000000000     0.649700000000     0.111450000000     0          
T        Si     0.250000000000     0.720500000000     0.151950000000     0          
T        Si     0.250000000000     0.500000000000     0.110950000000     0          
T        Si     0.151700000000     0.425400000000     0.186350000000     0          
T        Si     0.144650000000     0.354900000000     0.092100000000     0          
T        Si     0.156100000000     0.286800000000     0.190100000000     0          
T        Si     0.194800000000     0.323900000000     0.250000000000     0          
T        Si     0.194550000000     0.086100000000     0.000000000000     0          
T        Si     0.144050000000     0.500000000000     0.091250000000     0          
T        Si     0.250000000000     0.424400000000     0.149350000000     0          
T        Si     0.250000000000     0.350300000000     0.111450000000     0          
T        Si     0.250000000000     0.279500000000     0.151950000000     0          
T        Si     0.348300000000     0.425400000000     0.313650000000     0          
T        Si     0.355350000000     0.354900000000     0.407900000000     0          
T        Si     0.343900000000     0.286800000000     0.309900000000     0          
T        Si     0.305200000000     0.323900000000     0.250000000000     0          
T        Si     0.305450000000     0.086100000000     0.000000000000     0          
T        Si     0.355950000000     0.500000000000     0.408750000000     0          
T        Si     0.250000000000     0.424400000000     0.350650000000     0          
T        Si     0.250000000000     0.350300000000     0.388550000000     0          
T        Si     0.250000000000     0.279500000000     0.348050000000     0          
T        Si     0.250000000000     0.500000000000     0.389050000000     0          
T        Si     0.151700000000     0.574600000000     0.313650000000     0          
T        Si     0.144650000000     0.645100000000     0.407900000000     0          
T        Si     0.156100000000     0.713200000000     0.309900000000     0          
T        Si     0.194800000000     0.676100000000     0.250000000000     0          
T        Si     0.194550000000     0.913900000000     0.000000000000     0          
T        Si     0.144050000000     0.500000000000     0.408750000000     0          
T        Si     0.250000000000     0.575600000000     0.350650000000     0          
T        Si     0.250000000000     0.649700000000     0.388550000000     0          
T        Si     0.250000000000     0.720500000000     0.348050000000     0          
T        Si     0.151700000000     0.425400000000     0.313650000000     0          
T        Si     0.144650000000     0.354900000000     0.407900000000     0          
T        Si     0.156100000000     0.286800000000     0.309900000000     0          
T        Si     0.348300000000     0.574600000000     0.313650000000     0          
T        Si     0.355350000000     0.645100000000     0.407900000000     0          
T        Si     0.343900000000     0.713200000000     0.309900000000     0          
T        Si     0.151700000000     0.574600000000     0.186350000000     0          
T        Si     0.144650000000     0.645100000000     0.092100000000     0          
T        Si     0.156100000000     0.713200000000     0.190100000000     0          
T        Si     0.348300000000     0.425400000000     0.186350000000     0          
T        Si     0.355350000000     0.354900000000     0.092100000000     0          
T        Si     0.343900000000     0.286800000000     0.190100000000     0          
T        Si     0.098300000000     0.074600000000     0.686350000000     0          
T        Si     0.105350000000     0.145100000000     0.592100000000     0          
T        Si     0.093900000000     0.213200000000     0.690100000000     0          
T        Si     0.055200000000     0.176100000000     0.750000000000     0          
T        Si     0.055450000000     0.413900000000     0.500000000000     0          
T        Si     0.105950000000     0.000000000000     0.591250000000     0          
T        Si     0.000000000000     0.075600000000     0.649350000000     0          
T        Si     0.000000000000     0.149700000000     0.611450000000     0          
T        Si     0.000000000000     0.220500000000     0.651950000000     0          
T        Si     0.000000000000     0.000000000000     0.610950000000     0          
T        Si     0.401700000000     0.925400000000     0.686350000000     0          
T        Si     0.394650000000     0.854900000000     0.592100000000     0          
T        Si     0.406100000000     0.786800000000     0.690100000000     0          
T        Si     0.444800000000     0.823900000000     0.750000000000     0          
T        Si     0.444550000000     0.586100000000     0.500000000000     0          
T        Si     0.394050000000     0.000000000000     0.591250000000     0          
T        Si     0.000000000000     0.924400000000     0.649350000000     0          
T        Si     0.000000000000     0.850300000000     0.611450000000     0          
T        Si     0.000000000000     0.779500000000     0.651950000000     0          
T        Si     0.098300000000     0.925400000000     0.813650000000     0          
T        Si     0.105350000000     0.854900000000     0.907900000000     0          
T        Si     0.093900000000     0.786800000000     0.809900000000     0          
T        Si     0.055200000000     0.823900000000     0.750000000000     0          
T        Si     0.055450000000     0.586100000000     0.500000000000     0          
T        Si     0.105950000000     0.000000000000     0.908750000000     0          
T        Si     0.000000000000     0.924400000000     0.850650000000     0          
T        Si     0.000000000000     0.850300000000     0.888550000000     0          
T        Si     0.000000000000     0.779500000000     0.848050000000     0          
T        Si     0.000000000000     0.000000000000     0.889050000000     0          
T        Si     0.401700000000     0.074600000000     0.813650000000     0          
T        Si     0.394650000000     0.145100000000     0.907900000000     0          
T        Si     0.406100000000     0.213200000000     0.809900000000     0          
T        Si     0.444800000000     0.176100000000     0.750000000000     0          
T        Si     0.444550000000     0.413900000000     0.500000000000     0          
T        Si     0.394050000000     0.000000000000     0.908750000000     0          
T        Si     0.000000000000     0.075600000000     0.850650000000     0          
T        Si     0.000000000000     0.149700000000     0.888550000000     0          
T        Si     0.000000000000     0.220500000000     0.848050000000     0          
T        Si     0.401700000000     0.925400000000     0.813650000000     0          
T        Si     0.394650000000     0.854900000000     0.907900000000     0          
T        Si     0.406100000000     0.786800000000     0.809900000000     0          
T        Si     0.098300000000     0.074600000000     0.813650000000     0          
T        Si     0.105350000000     0.145100000000     0.907900000000     0          
T        Si     0.093900000000     0.213200000000     0.809900000000     0          
T        Si     0.401700000000     0.074600000000     0.686350000000     0          
T        Si     0.394650000000     0.145100000000     0.592100000000     0          
T        Si     0.406100000000     0.213200000000     0.690100000000     0          
T        Si     0.098300000000     0.925400000000     0.686350000000     0          
T        Si     0.105350000000     0.854900000000     0.592100000000     0          
T        Si     0.093900000000     0.786800000000     0.690100000000     0          
T        Si     0.098300000000     0.574600000000     0.936350000000     0          
T        Si     0.105350000000     0.645100000000     0.842100000000     0          
T        Si     0.093900000000     0.713200000000     0.940100000000     0          
T        Si     0.055200000000     0.676100000000     0.500000000000     0          
T        Si     0.055450000000     0.913900000000     0.750000000000     0          
T        Si     0.105950000000     0.500000000000     0.841250000000     0          
T        Si     0.000000000000     0.575600000000     0.899350000000     0          
T        Si     0.000000000000     0.649700000000     0.861450000000     0          
T        Si     0.000000000000     0.720500000000     0.901950000000     0          
T        Si     0.000000000000     0.500000000000     0.860950000000     0          
T        Si     0.401700000000     0.425400000000     0.936350000000     0          
T        Si     0.394650000000     0.354900000000     0.842100000000     0          
T        Si     0.406100000000     0.286800000000     0.940100000000     0          
T        Si     0.444800000000     0.323900000000     0.500000000000     0          
T        Si     0.444550000000     0.086100000000     0.750000000000     0          
T        Si     0.394050000000     0.500000000000     0.841250000000     0          
T        Si     0.000000000000     0.424400000000     0.899350000000     0          
T        Si     0.000000000000     0.350300000000     0.861450000000     0          
T        Si     0.000000000000     0.279500000000     0.901950000000     0          
T        Si     0.098300000000     0.425400000000     0.563650000000     0          
T        Si     0.105350000000     0.354900000000     0.657900000000     0          
T        Si     0.093900000000     0.286800000000     0.559900000000     0          
T        Si     0.055200000000     0.323900000000     0.500000000000     0          
T        Si     0.055450000000     0.086100000000     0.750000000000     0          
T        Si     0.105950000000     0.500000000000     0.658750000000     0          
T        Si     0.000000000000     0.424400000000     0.600650000000     0          
T        Si     0.000000000000     0.350300000000     0.638550000000     0          
T        Si     0.000000000000     0.279500000000     0.598050000000     0          
T        Si     0.000000000000     0.500000000000     0.639050000000     0          
T        Si     0.401700000000     0.574600000000     0.563650000000     0          
T        Si     0.394650000000     0.645100000000     0.657900000000     0          
T        Si     0.406100000000     0.713200000000     0.559900000000     0          
T        Si     0.444800000000     0.676100000000     0.500000000000     0          
T        Si     0.444550000000     0.913900000000     0.750000000000     0          
T        Si     0.394050000000     0.500000000000     0.658750000000     0          
T        Si     0.000000000000     0.575600000000     0.600650000000     0          
T        Si     0.000000000000     0.649700000000     0.638550000000     0          
T        Si     0.000000000000     0.720500000000     0.598050000000     0          
T        Si     0.401700000000     0.425400000000     0.563650000000     0          
T        Si     0.394650000000     0.354900000000     0.657900000000     0          
T        Si     0.406100000000     0.286800000000     0.559900000000     0          
T        Si     0.098300000000     0.574600000000     0.563650000000     0          
T        Si     0.105350000000     0.645100000000     0.657900000000     0          
T        Si     0.093900000000     0.713200000000     0.559900000000     0          
T        Si     0.401700000000     0.574600000000     0.936350000000     0          
T        Si     0.394650000000     0.645100000000     0.842100000000     0          
T        Si     0.406100000000     0.713200000000     0.940100000000     0          
T        Si     0.098300000000     0.425400000000     0.936350000000     0          
T        Si     0.105350000000     0.354900000000     0.842100000000     0          
T        Si     0.093900000000     0.286800000000     0.940100000000     0          
T        Si     0.348300000000     0.074600000000     0.936350000000     0          
T        Si     0.355350000000     0.145100000000     0.842100000000     0          
T        Si     0.343900000000     0.213200000000     0.940100000000     0          
T        Si     0.305200000000     0.176100000000     0.500000000000     0          
T        Si     0.305450000000     0.413900000000     0.750000000000     0          
T        Si     0.355950000000     0.000000000000     0.841250000000     0          
T        Si     0.250000000000     0.075600000000     0.899350000000     0          
T        Si     0.250000000000     0.149700000000     0.861450000000     0          
T        Si     0.250000000000     0.220500000000     0.901950000000     0          
T        Si     0.250000000000     0.000000000000     0.860950000000     0          
T        Si     0.151700000000     0.925400000000     0.936350000000     0          
T        Si     0.144650000000     0.854900000000     0.842100000000     0          
T        Si     0.156100000000     0.786800000000     0.940100000000     0          
T        Si     0.194800000000     0.823900000000     0.500000000000     0          
T        Si     0.194550000000     0.586100000000     0.750000000000     0          
T        Si     0.144050000000     0.000000000000     0.841250000000     0          
T        Si     0.250000000000     0.924400000000     0.899350000000     0          
T        Si     0.250000000000     0.850300000000     0.861450000000     0          
T        Si     0.250000000000     0.779500000000     0.901950000000     0          
T        Si     0.348300000000     0.925400000000     0.563650000000     0          
T        Si     0.355350000000     0.854900000000     0.657900000000     0          
T        Si     0.343900000000     0.786800000000     0.559900000000     0          
T        Si     0.305200000000     0.823900000000     0.500000000000     0          
T        Si     0.305450000000     0.586100000000     0.750000000000     0          
T        Si     0.355950000000     0.000000000000     0.658750000000     0          
T        Si     0.250000000000     0.924400000000     0.600650000000     0          
T        Si     0.250000000000     0.850300000000     0.638550000000     0          
T        Si     0.250000000000     0.779500000000     0.598050000000     0          
T        Si     0.250000000000     0.000000000000     0.639050000000     0          
T        Si     0.151700000000     0.074600000000     0.563650000000     0          
T        Si     0.144650000000     0.145100000000     0.657900000000     0          
T        Si     0.156100000000     0.213200000000     0.559900000000     0          
T        Si     0.194800000000     0.176100000000     0.500000000000     0          
T        Si     0.194550000000     0.413900000000     0.750000000000     0          
T        Si     0.144050000000     0.000000000000     0.658750000000     0          
T        Si     0.250000000000     0.075600000000     0.600650000000     0          
T        Si     0.250000000000     0.149700000000     0.638550000000     0          
T        Si     0.250000000000     0.220500000000     0.598050000000     0          
T        Si     0.151700000000     0.925400000000     0.563650000000     0          
T        Si     0.144650000000     0.854900000000     0.657900000000     0          
T        Si     0.156100000000     0.786800000000     0.559900000000     0          
T        Si     0.348300000000     0.074600000000     0.563650000000     0          
T        Si     0.355350000000     0.145100000000     0.657900000000     0          
T        Si     0.343900000000     0.213200000000     0.559900000000     0          
T        Si     0.151700000000     0.074600000000     0.936350000000     0          
T        Si     0.144650000000     0.145100000000     0.842100000000     0          
T        Si     0.156100000000     0.213200000000     0.940100000000     0          
T        Si     0.348300000000     0.925400000000     0.936350000000     0          
T        Si     0.355350000000     0.854900000000     0.842100000000     0          
T        Si     0.343900000000     0.786800000000     0.940100000000     0          
T        Si     0.348300000000     0.574600000000     0.686350000000     0          
T        Si     0.355350000000     0.645100000000     0.592100000000     0          
T        Si     0.343900000000     0.713200000000     0.690100000000     0          
T        Si     0.305200000000     0.676100000000     0.750000000000     0          
T        Si     0.305450000000     0.913900000000     0.500000000000     0          
T        Si     0.355950000000     0.500000000000     0.591250000000     0          
T        Si     0.250000000000     0.575600000000     0.649350000000     0          
T        Si     0.250000000000     0.649700000000     0.611450000000     0          
T        Si     0.250000000000     0.720500000000     0.651950000000     0          
T        Si     0.250000000000     0.500000000000     0.610950000000     0          
T        Si     0.151700000000     0.425400000000     0.686350000000     0          
T        Si     0.144650000000     0.354900000000     0.592100000000     0          
T        Si     0.156100000000     0.286800000000     0.690100000000     0          
T        Si     0.194800000000     0.323900000000     0.750000000000     0          
T        Si     0.194550000000     0.086100000000     0.500000000000     0          
T        Si     0.144050000000     0.500000000000     0.591250000000     0          
T        Si     0.250000000000     0.424400000000     0.649350000000     0          
T        Si     0.250000000000     0.350300000000     0.611450000000     0          
T        Si     0.250000000000     0.279500000000     0.651950000000     0          
T        Si     0.348300000000     0.425400000000     0.813650000000     0          
T        Si     0.355350000000     0.354900000000     0.907900000000     0          
T        Si     0.343900000000     0.286800000000     0.809900000000     0          
T        Si     0.305200000000     0.323900000000     0.750000000000     0          
T        Si     0.305450000000     0.086100000000     0.500000000000     0          
T        Si     0.355950000000     0.500000000000     0.908750000000     0          
T        Si     0.250000000000     0.424400000000     0.850650000000     0          
T        Si     0.250000000000     0.350300000000     0.888550000000     0          
T        Si     0.250000000000     0.279500000000     0.848050000000     0          
T        Si     0.250000000000     0.500000000000     0.889050000000     0          
T        Si     0.151700000000     0.574600000000     0.813650000000     0          
T        Si     0.144650000000     0.645100000000     0.907900000000     0          
T        Si     0.156100000000     0.713200000000     0.809900000000     0          
T        Si     0.194800000000     0.676100000000     0.750000000000     0          
T        Si     0.194550000000     0.913900000000     0.500000000000     0          
T        Si     0.144050000000     0.500000000000     0.908750000000     0          
T        Si     0.250000000000     0.575600000000     0.850650000000     0          
T        Si     0.250000000000     0.649700000000     0.888550000000     0          
T        Si     0.250000000000     0.720500000000     0.848050000000     0          
T        Si     0.151700000000     0.425400000000     0.813650000000     0          
T        Si     0.144650000000     0.354900000000     0.907900000000     0          
T        Si     0.156100000000     0.286800000000     0.809900000000     0          
T        Si     0.348300000000     0.574600000000     0.813650000000     0          
T        Si     0.355350000000     0.645100000000     0.907900000000     0          
T        Si     0.343900000000     0.713200000000     0.809900000000     0          
T        Si     0.151700000000     0.574600000000     0.686350000000     0          
T        Si     0.144650000000     0.645100000000     0.592100000000     0          
T        Si     0.156100000000     0.713200000000     0.690100000000     0          
T        Si     0.348300000000     0.425400000000     0.686350000000     0          
T        Si     0.355350000000     0.354900000000     0.592100000000     0          
T        Si     0.343900000000     0.286800000000     0.690100000000     0          
T        Si     0.598300000000     0.074600000000     0.186350000000     0          
T        Si     0.605350000000     0.145100000000     0.092100000000     0          
T        Si     0.593900000000     0.213200000000     0.190100000000     0          
T        Si     0.555200000000     0.176100000000     0.250000000000     0          
T        Si     0.555450000000     0.413900000000     0.000000000000     0          
T        Si     0.605950000000     0.000000000000     0.091250000000     0          
T        Si     0.500000000000     0.075600000000     0.149350000000     0          
T        Si     0.500000000000     0.149700000000     0.111450000000     0          
T        Si     0.500000000000     0.220500000000     0.151950000000     0          
T        Si     0.500000000000     0.000000000000     0.110950000000     0          
T        Si     0.901700000000     0.925400000000     0.186350000000     0          
T        Si     0.894650000000     0.854900000000     0.092100000000     0          
T        Si     0.906100000000     0.786800000000     0.190100000000     0          
T        Si     0.944800000000     0.823900000000     0.250000000000     0          
T        Si     0.944550000000     0.586100000000     0.000000000000     0          
T        Si     0.894050000000     0.000000000000     0.091250000000     0          
T        Si     0.500000000000     0.924400000000     0.149350000000     0          
T        Si     0.500000000000     0.850300000000     0.111450000000     0          
T        Si     0.500000000000     0.779500000000     0.151950000000     0          
T        Si     0.598300000000     0.925400000000     0.313650000000     0          
T        Si     0.605350000000     0.854900000000     0.407900000000     0          
T        Si     0.593900000000     0.786800000000     0.309900000000     0          
T        Si     0.555200000000     0.823900000000     0.250000000000     0          
T        Si     0.555450000000     0.586100000000     0.000000000000     0          
T        Si     0.605950000000     0.000000000000     0.408750000000     0          
T        Si     0.500000000000     0.924400000000     0.350650000000     0          
T        Si     0.500000000000     0.850300000000     0.388550000000     0          
T        Si     0.500000000000     0.779500000000     0.348050000000     0          
T        Si     0.500000000000     0.000000000000     0.389050000000     0          
T        Si     0.901700000000     0.074600000000     0.313650000000     0          
T        Si     0.894650000000     0.145100000000     0.407900000000     0          
T        Si     0.906100000000     0.213200000000     0.309900000000     0          
T        Si     0.944800000000     0.176100000000     0.250000000000     0          
T        Si     0.944550000000     0.413900000000     0.000000000000     0          
T        Si     0.894050000000     0.000000000000     0.408750000000     0          
T        Si     0.500000000000     0.075600000000     0.350650000000     0          
T        Si     0.500000000000     0.149700000000     0.388550000000     0          
T        Si     0.500000000000     0.220500000000     0.348050000000     0          
T        Si     0.901700000000     0.925400000000     0.313650000000     0          
T        Si     0.894650000000     0.854900000000     0.407900000000     0          
T        Si     0.906100000000     0.786800000000     0.309900000000     0          
T        Si     0.598300000000     0.074600000000     0.313650000000     0          
T        Si     0.605350000000     0.145100000000     0.407900000000     0          
T        Si     0.593900000000     0.213200000000     0.309900000000     0          
T        Si     0.901700000000     0.074600000000     0.186350000000     0          
T        Si     0.894650000000     0.145100000000     0.092100000000     0          
T        Si     0.906100000000     0.213200000000     0.190100000000     0          
T        Si     0.598300000000     0.925400000000     0.186350000000     0          
T        Si     0.605350000000     0.854900000000     0.092100000000     0          
T        Si     0.593900000000     0.786800000000     0.190100000000     0          
T        Si     0.598300000000     0.574600000000     0.436350000000     0          
T        Si     0.605350000000     0.645100000000     0.342100000000     0          
T        Si     0.593900000000     0.713200000000     0.440100000000     0          
T        Si     0.555200000000     0.676100000000     0.000000000000     0          
T        Si     0.555450000000     0.913900000000     0.250000000000     0          
T        Si     0.605950000000     0.500000000000     0.341250000000     0          
T        Si     0.500000000000     0.575600000000     0.399350000000     0          
T        Si     0.500000000000     0.649700000000     0.361450000000     0          
T        Si     0.500000000000     0.720500000000     0.401950000000     0          
T        Si     0.500000000000     0.500000000000     0.360950000000     0          
T        Si     0.901700000000     0.425400000000     0.436350000000     0          
T        Si     0.894650000000     0.354900000000     0.342100000000     0          
T        Si     0.906100000000     0.286800000000     0.440100000000     0          
T        Si     0.944800000000     0.323900000000     0.000000000000     0          
T        Si     0.944550000000     0.086100000000     0.250000000000     0          
T        Si     0.894050000000     0.500000000000     0.341250000000     0          
T        Si     0.500000000000     0.424400000000     0.399350000000     0          
T        Si     0.500000000000     0.350300000000     0.361450000000     0          
T        Si     0.500000000000     0.279500000000     0.401950000000     0          
T        Si     0.598300000000     0.425400000000     0.063650000000     0          
T        Si     0.605350000000     0.354900000000     0.157900000000     0          
T        Si     0.593900000000     0.286800000000     0.059900000000     0          
T        Si     0.555200000000     0.323900000000     0.000000000000     0          
T        Si     0.555450000000     0.086100000000     0.250000000000     0          
T        Si     0.605950000000     0.500000000000     0.158750000000     0          
T        Si     0.500000000000     0.424400000000     0.100650000000     0          
T        Si     0.500000000000     0.350300000000     0.138550000000     0          
T        Si     0.500000000000     0.279500000000     0.098050000000     0          
T        Si     0.500000000000     0.500000000000     0.139050000000     0          
T        Si     0.901700000000     0.574600000000     0.063650000000     0          
T        Si     0.894650000000     0.645100000000     0.157900000000     0          
T        Si     0.906100000000     0.713200000000     0.059900000000     0          
T        Si     0.944800000000     0.676100000000     0.000000000000     0          
T        Si     0.944550000000     0.913900000000     0.250000000000     0          
T        Si     0.894050000000     0.500000000000     0.158750000000     0          
T        Si     0.500000000000     0.575600000000     0.100650000000     0          
T        Si     0.500000000000     0.649700000000     0.138550000000     0          
T        Si     0.500000000000     0.720500000000     0.098050000000     0          
T        Si     0.901700000000     0.425400000000     0.063650000000     0          
T        Si     0.894650000000     0.354900000000     0.157900000000     0          
T        Si     0.906100000000     0.286800000000     0.059900000000     0          
T        Si     0.598300000000     0.574600000000     0.063650000000     0          
T        Si     0.605350000000     0.645100000000     0.157900000000     0          
T        Si     0.593900000000     0.713200000000     0.059900000000     0          
T        Si     0.901700000000     0.574600000000     0.436350000000     0          
T        Si     0.894650000000     0.645100000000     0.342100000000     0          
T        Si     0.906100000000     0.713200000000     0.440100000000     0          
T        Si     0.598300000000     0.425400000000     0.436350000000     0          
T        Si     0.605350000000     0.354900000000     0.342100000000     0          
T        Si     0.593900000000     0.286800000000     0.440100000000     0          
T        Si     0.848300000000     0.074600000000     0.436350000000     0          
T        Si     0.855350000000     0.145100000000     0.342100000000     0          
T        Si     0.843900000000     0.213200000000     0.440100000000     0          
T        Si     0.805200000000     0.176100000000     0.000000000000     0          
T        Si     0.805450000000     0.413900000000     0.250000000000     0          
T        Si     0.855950000000     0.000000000000     0.341250000000     0          
T        Si     0.750000000000     0.075600000000     0.399350000000     0          
T        Si     0.750000000000     0.149700000000     0.361450000000     0          
T        Si     0.750000000000     0.220500000000     0.401950000000     0          
T        Si     0.750000000000     0.000000000000     0.360950000000     0          
T        Si     0.651700000000     0.925400000000     0.436350000000     0          
T        Si     0.644650000000     0.854900000000     0.342100000000     0          
T        Si     0.656100000000     0.786800000000     0.440100000000     0          
T        Si     0.694800000000     0.823900000000     0.000000000000     0          
T        Si     0.694550000000     0.586100000000     0.250000000000     0          
T        Si     0.644050000000     0.000000000000     0.341250000000     0          
T        Si     0.750000000000     0.924400000000     0.399350000000     0          
T        Si     0.750000000000     0.850300000000     0.361450000000     0          
T        Si     0.750000000000     0.779500000000     0.401950000000     0          
T        Si     0.848300000000     0.925400000000     0.063650000000     0          
T        Si     0.855350000000     0.854900000000     0.157900000000     0          
T        Si     0.843900000000     0.786800000000     0.059900000000     0          
T        Si     0.805200000000     0.823900000000     0.000000000000     0          
T        Si     0.805450000000     0.586100000000     0.250000000000     0          
T        Si     0.855950000000     0.000000000000     0.158750000000     0          
T        Si     0.750000000000     0.924400000000     0.100650000000     0          
T        Si     0.750000000000     0.850300000000     0.138550000000     0          
T        Si     0.750000000000     0.779500000000     0.098050000000     0          
T        Si     0.750000000000     0.000000000000     0.139050000000     0          
T        Si     0.651700000000     0.074600000000     0.063650000000     0          
T        Si     0.644650000000     0.145100000000     0.157900000000     0          
T        Si     0.656100000000     0.213200000000     0.059900000000     0          
T        Si     0.694800000000     0.176100000000     0.000000000000     0          
T        Si     0.694550000000     0.413900000000     0.250000000000     0          
T        Si     0.644050000000     0.000000000000     0.158750000000     0          
T        Si     0.750000000000     0.075600000000     0.100650000000     0          
T        Si     0.750000000000     0.149700000000     0.138550000000     0          
T        Si     0.750000000000     0.220500000000     0.098050000000     0          
T        Si     0.651700000000     0.925400000000     0.063650000000     0          
T        Si     0.644650000000     0.854900000000     0.157900000000     0          
T        Si     0.656100000000     0.786800000000     0.059900000000     0          
T        Si     0.848300000000     0.074600000000     0.063650000000     0          
T        Si     0.855350000000     0.145100000000     0.157900000000     0          
T        Si     0.843900000000     0.213200000000     0.059900000000     0          
T        Si     0.651700000000     0.074600000000     0.436350000000     0          
T        Si     0.644650000000     0.145100000000     0.342100000000     0          
T        Si     0.656100000000     0.213200000000     0.440100000000     0          
T        Si     0.848300000000     0.925400000000     0.436350000000     0          
T        Si     0.855350000000     0.854900000000     0.342100000000     0          
T        Si     0.843900000000     0.786800000000     0.440100000000     0          
T        Si     0.848300000000     0.574600000000     0.186350000000     0          
T        Si     0.855350000000     0.645100000000     0.092100000000     0          
T        Si     0.843900000000     0.713200000000     0.190100000000     0          
T        Si     0.805200000000     0.676100000000     0.250000000000     0          
T        Si     0.805450000000     0.913900000000     0.000000000000     0          
T        Si     0.855950000000     0.500000000000     0.091250000000     0          
T        Si     0.750000000000     0.575600000000     0.149350000000     0          
T        Si     0.750000000000     0.649700000000     0.111450000000     0          
T        Si     0.750000000000     0.720500000000     0.151950000000     0          
T        Si     0.750000000000     0.500000000000     0.110950000000     0          
T        Si     0.651700000000     0.425400000000     0.186350000000     0          
T        Si     0.644650000000     0.354900000000     0.092100000000     0          
T        Si     0.656100000000     0.286800000000     0.190100000000     0          
T        Si     0.694800000000     0.323900000000     0.250000000000     0          
T        Si     0.694550000000     0.086100000000     0.000000000000     0          
T        Si     0.644050000000     0.500000000000     0.091250000000     0          
T        Si     0.750000000000     0.424400000000     0.149350000000     0          
T        Si     0.750000000000     0.350300000000     0.111450000000     0          
T        Si     0.750000000000     0.279500000000     0.151950000000     0          
T        Si     0.848300000000     0.425400000000     0.313650000000     0          
T        Si     0.855350000000     0.354900000000     0.407900000000     0          
T        Si     0.843900000000     0.286800000000     0.309900000000     0          
T        Si     0.805200000000     0.323900000000     0.250000000000     0          
T        Si     0.805450000000     0.086100000000     0.000000000000     0          
T        Si     0.855950000000     0.500000000000     0.408750000000     0          
T        Si     0.750000000000     0.424400000000     0.350650000000     0          
T        Si     0.750000000000     0.350300000000     0.388550000000     0          
T        Si     0.750000000000     0.279500000000     0.348050000000     0          
T        Si     0.750000000000     0.500000000000     0.389050000000     0          
T        Si     0.651700000000     0.574600000000     0.313650000000     0          
T        Si     0.644650000000     0.645100000000     0.407900000000     0          
T        Si     0.656100000000     0.713200000000     0.309900000000     0          
T        Si     0.694800000000     0.676100000000     0.250000000000     0          
T        Si     0.694550000000     0.913900000000     0.000000000000     0          
T        Si     0.644050000000     0.500000000000     0.408750000000     0          
T        Si     0.750000000000     0.575600000000     0.350650000000     0          
T        Si     0.750000000000     0.649700000000     0.388550000000     0          
T        Si     0.750000000000     0.720500000000     0.348050000000     0          
T        Si     0.651700000000     0.425400000000     0.313650000000     0          
T        Si     0.644650000000     0.354900000000     0.407900000000     0          
T        Si     0.656100000000     0.286800000000     0.309900000000     0          
T        Si     0.848300000000     0.574600000000     0.313650000000     0          
T        Si     0.855350000000     0.645100000000     0.407900000000     0          
T        Si     0.843900000000     0.713200000000     0.309900000000     0          
T        Si     0.651700000000     0.574600000000     0.186350000000     0          
T        Si     0.644650000000     0.645100000000     0.092100000000     0          
T        Si     0.656100000000     0.713200000000     0.190100000000     0          
T        Si     0.848300000000     0.425400000000     0.186350000000     0          
T        Si     0.855350000000     0.354900000000     0.092100000000     0          
T        Si     0.843900000000     0.286800000000     0.190100000000     0          
T        Si     0.598300000000     0.074600000000     0.686350000000     0          
T        Si     0.605350000000     0.145100000000     0.592100000000     0          
T        Si     0.593900000000     0.213200000000     0.690100000000     0          
T        Si     0.555200000000     0.176100000000     0.750000000000     0          
T        Si     0.555450000000     0.413900000000     0.500000000000     0          
T        Si     0.605950000000     0.000000000000     0.591250000000     0          
T        Si     0.500000000000     0.075600000000     0.649350000000     0          
T        Si     0.500000000000     0.149700000000     0.611450000000     0          
T        Si     0.500000000000     0.220500000000     0.651950000000     0          
T        Si     0.500000000000     0.000000000000     0.610950000000     0          
T        Si     0.901700000000     0.925400000000     0.686350000000     0          
T        Si     0.894650000000     0.854900000000     0.592100000000     0          
T        Si     0.906100000000     0.786800000000     0.690100000000     0          
T        Si     0.944800000000     0.823900000000     0.750000000000     0          
T        Si     0.944550000000     0.586100000000     0.500000000000     0          
T        Si     0.894050000000     0.000000000000     0.591250000000     0          
T        Si     0.500000000000     0.924400000000     0.649350000000     0          
T        Si     0.500000000000     0.850300000000     0.611450000000     0          
T        Si     0.500000000000     0.779500000000     0.651950000000     0          
T        Si     0.598300000000     0.925400000000     0.813650000000     0          
T        Si     0.605350000000     0.854900000000     0.907900000000     0          
T        Si     0.593900000000     0.786800000000     0.809900000000     0          
T        Si     0.555200000000     0.823900000000     0.750000000000     0          
T        Si     0.555450000000     0.586100000000     0.500000000000     0          
T        Si     0.605950000000     0.000000000000     0.908750000000     0          
T        Si     0.500000000000     0.924400000000     0.850650000000     0          
T        Si     0.500000000000     0.850300000000     0.888550000000     0          
T        Si     0.500000000000     0.779500000000     0.848050000000     0          
T        Si     0.500000000000     0.000000000000     0.889050000000     0          
T        Si     0.901700000000     0.074600000000     0.813650000000     0          
T        Si     0.894650000000     0.145100000000     0.907900000000     0          
T        Si     0.906100000000     0.213200000000     0.809900000000     0          
T        Si     0.944800000000     0.176100000000     0.750000000000     0          
T        Si     0.944550000000     0.413900000000     0.500000000000     0          
T        Si     0.894050000000     0.000000000000     0.908750000000     0          
T        Si     0.500000000000     0.075600000000     0.850650000000     0          
T        Si     0.500000000000     0.149700000000     0.888550000000     0          
T        Si     0.500000000000     0.220500000000     0.848050000000     0          
T        Si     0.901700000000     0.925400000000     0.813650000000     0          
T        Si     0.894650000000     0.854900000000     0.907900000000     0          
T        Si     0.906100000000     0.786800000000     0.809900000000     0          
T        Si     0.598300000000     0.074600000000     0.813650000000     0          
T        Si     0.605350000000     0.145100000000     0.907900000000     0          
T        Si     0.593900000000     0.213200000000     0.809900000000     0          
T        Si     0.901700000000     0.074600000000     0.686350000000     0          
T        Si     0.894650000000     0.145100000000     0.592100000000     0          
T        Si     0.906100000000     0.213200000000     0.690100000000     0          
T        Si     0.598300000000     0.925400000000     0.686350000000     0          
T        Si     0.605350000000     0.854900000000     0.592100000000     0          
T        Si     0.593900000000     0.786800000000     0.690100000000     0          
T        Si     0.598300000000     0.574600000000     0.936350000000     0          
T        Si     0.605350000000     0.645100000000     0.842100000000     0          
T        Si     0.593900000000     0.713200000000     0.940100000000     0          
T        Si     0.555200000000     0.676100000000     0.500000000000     0          
T        Si     0.555450000000     0.913900000000     0.750000000000     0          
T        Si     0.605950000000     0.500000000000     0.841250000000     0          
T        Si     0.500000000000     0.575600000000     0.899350000000     0          
T        Si     0.500000000000     0.649700000000     0.861450000000     0          
T        Si     0.500000000000     0.720500000000     0.901950000000     0          
T        Si     0.500000000000     0.500000000000     0.860950000000     0          
T        Si     0.901700000000     0.425400000000     0.936350000000     0          
T        Si     0.894650000000     0.354900000000     0.842100000000     0          
T        Si     0.906100000000     0.286800000000     0.940100000000     0          
T        Si     0.944800000000     0.323900000000     0.500000000000     0          
T        Si     0.944550000000     0.086100000000     0.750000000000     0          
T        Si     0.894050000000     0.500000000000     0.841250000000     0          
T        Si     0.500000000000     0.424400000000     0.899350000000     0          
T        Si     0.500000000000     0.350300000000     0.861450000000     0          
T        Si     0.500000000000     0.279500000000     0.901950000000     0          
T        Si     0.598300000000     0.425400000000     0.563650000000     0          
T        Si     0.605350000000     0.354900000000     0.657900000000     0          
T        Si     0.593900000000     0.286800000000     0.559900000000     0          
T        Si     0.555200000000     0.323900000000     0.500000000000     0          
T        Si     0.555450000000     0.086100000000     0.750000000000     0          
T        Si     0.605950000000     0.500000000000     0.658750000000     0          
T        Si     0.500000000000     0.424400000000     0.600650000000     0          
T        Si     0.500000000000     0.350300000000     0.638550000000     0          
T        Si     0.500000000000     0.279500000000     0.598050000000     0          
T        Si     0.500000000000     0.500000000000     0.639050000000     0          
T        Si     0.901700000000     0.574600000000     0.563650000000     0          
T        Si     0.894650000000     0.645100000000     0.657900000000     0          
T        Si     0.906100000000     0.713200000000     0.559900000000     0          
T        Si     0.944800000000     0.676100000000     0.500000000000     0          
T        Si     0.944550000000     0.913900000000     0.750000000000     0          
T        Si     0.894050000000     0.500000000000     0.658750000000     0          
T        Si     0.500000000000     0.575600000000     0.600650000000     0          
T        Si     0.500000000000     0.649700000000     0.638550000000     0          
T        Si     0.500000000000     0.720500000000     0.598050000000     0          
T        Si     0.901700000000     0.425400000000     0.563650000000     0          
T        Si     0.894650000000     0.354900000000     0.657900000000     0          
T        Si     0.906100000000     0.286800000000     0.559900000000     0          
T        Si     0.598300000000     0.574600000000     0.563650000000     0          
T        Si     0.605350000000     0.645100000000     0.657900000000     0          
T        Si     0.593900000000     0.713200000000     0.559900000000     0          
T        Si     0.901700000000     0.574600000000     0.936350000000     0          
T        Si     0.894650000000     0.645100000000     0.842100000000     0          
T        Si     0.906100000000     0.713200000000     0.940100000000     0          
T        Si     0.598300000000     0.425400000000     0.936350000000     0          
T        Si     0.605350000000     0.354900000000     0.842100000000     0          
T        Si     0.593900000000     0.286800000000     0.940100000000     0          
T        Si     0.848300000000     0.074600000000     0.936350000000     0          
T        Si     0.855350000000     0.145100000000     0.842100000000     0          
T        Si     0.843900000000     0.213200000000     0.940100000000     0          
T        Si     0.805200000000     0.176100000000     0.500000000000     0          
T        Si     0.805450000000     0.413900000000     0.750000000000     0          
T        Si     0.855950000000     0.000000000000     0.841250000000     0          
T        Si     0.750000000000     0.075600000000     0.899350000000     0          
T        Si     0.750000000000     0.149700000000     0.861450000000     0          
T        Si     0.750000000000     0.220500000000     0.901950000000     0          
T        Si     0.750000000000     0.000000000000     0.860950000000     0          
T        Si     0.651700000000     0.925400000000     0.936350000000     0          
T        Si     0.644650000000     0.854900000000     0.842100000000     0          
T        Si     0.656100000000     0.786800000000     0.940100000000     0          
T        Si     0.694800000000     0.823900000000     0.500000000000     0          
T        Si     0.694550000000     0.586100000000     0.750000000000     0          
T        Si     0.644050000000     0.000000000000     0.841250000000     0          
T        Si     0.750000000000     0.924400000000     0.899350000000     0          
T        Si     0.750000000000     0.850300000000     0.861450000000     0          
T        Si     0.750000000000     0.779500000000     0.901950000000     0          
T        Si     0.848300000000     0.925400000000     0.563650000000     0          
T        Si     0.855350000000     0.854900000000     0.657900000000     0          
T        Si     0.843900000000     0.786800000000     0.559900000000     0          
T        Si     0.805200000000     0.823900000000     0.500000000000     0          
T        Si     0.805450000000     0.586100000000     0.750000000000     0          
T        Si     0.855950000000     0.000000000000     0.658750000000     0          
T        Si     0.750000000000     0.924400000000     0.600650000000     0          
T        Si     0.750000000000     0.850300000000     0.638550000000     0          
T        Si     0.750000000000     0.779500000000     0.598050000000     0          
T        Si     0.750000000000     0.000000000000     0.639050000000     0          
T        Si     0.651700000000     0.074600000000     0.563650000000     0          
T        Si     0.644650000000     0.145100000000     0.657900000000     0          
T        Si     0.656100000000     0.213200000000     0.559900000000     0          
T        Si     0.694800000000     0.176100000000     0.500000000000     0          
T        Si     0.694550000000     0.413900000000     0.750000000000     0          
T        Si     0.644050000000     0.000000000000     0.658750000000     0          
T        Si     0.750000000000     0.075600000000     0.600650000000     0          
T        Si     0.750000000000     0.149700000000     0.638550000000     0          
T        Si     0.750000000000     0.220500000000     0.598050000000     0          
T        Si     0.651700000000     0.925400000000     0.563650000000     0          
T        Si     0.644650000000     0.854900000000     0.657900000000     0          
T        Si     0.656100000000     0.786800000000     0.559900000000     0          
T        Si     0.848300000000     0.074600000000     0.563650000000     0          
T        Si     0.855350000000     0.145100000000     0.657900000000     0          
T        Si     0.843900000000     0.213200000000     0.559900000000     0          
T        Si     0.651700000000     0.074600000000     0.936350000000     0          
T        Si     0.644650000000     0.145100000000     0.842100000000     0          
T        Si     0.656100000000     0.213200000000     0.940100000000     0          
T        Si     0.848300000000     0.925400000000     0.936350000000     0          
T        Si     0.855350000000     0.854900000000     0.842100000000     0          
T        Si     0.843900000000     0.786800000000     0.940100000000     0          
T        Si     0.848300000000     0.574600000000     0.686350000000     0          
T        Si     0.855350000000     0.645100000000     0.592100000000     0          
T        Si     0.843900000000     0.713200000000     0.690100000000     0          
T        Si     0.805200000000     0.676100000000     0.750000000000     0          
T        Si     0.805450000000     0.913900000000     0.500000000000     0          
T        Si     0.855950000000     0.500000000000     0.591250000000     0          
T        Si     0.750000000000     0.575600000000     0.649350000000     0          
T        Si     0.750000000000     0.649700000000     0.611450000000     0          
T        Si     0.750000000000     0.720500000000     0.651950000000     0          
T        Si     0.750000000000     0.500000000000     0.610950000000     0          
T        Si     0.651700000000     0.425400000000     0.686350000000     0          
T        Si     0.644650000000     0.354900000000     0.592100000000     0          
T        Si     0.656100000000     0.286800000000     0.690100000000     0          
T        Si     0.694800000000     0.323900000000     0.750000000000     0          
T        Si     0.694550000000     0.086100000000     0.500000000000     0          
T        Si     0.644050000000     0.500000000000     0.591250000000     0          
T        Si     0.750000000000     0.424400000000     0.649350000000     0          
T        Si     0.750000000000     0.350300000000     0.611450000000     0          
T        Si     0.750000000000     0.279500000000     0.651950000000     0          
T        Si     0.848300000000     0.425400000000     0.813650000000     0          
T        Si     0.855350000000     0.354900000000     0.907900000000     0          
T        Si     0.843900000000     0.286800000000     0.809900000000     0          
T        Si     0.805200000000     0.323900000000     0.750000000000     0          
T        Si     0.805450000000     0.086100000000     0.500000000000     0          
T        Si     0.855950000000     0.500000000000     0.908750000000     0          
T        Si     0.750000000000     0.424400000000     0.850650000000     0          
T        Si     0.750000000000     0.350300000000     0.888550000000     0          
T        Si     0.750000000000     0.279500000000     0.848050000000     0          
T        Si     0.750000000000     0.500000000000     0.889050000000     0          
T        Si     0.651700000000     0.574600000000     0.813650000000     0          
T        Si     0.644650000000     0.645100000000     0.907900000000     0          
T        Si     0.656100000000     0.713200000000     0.809900000000     0          
T        Si     0.694800000000     0.676100000000     0.750000000000     0          
T        Si     0.694550000000     0.913900000000     0.500000000000     0          
T        Si     0.644050000000     0.500000000000     0.908750000000     0          
T        Si     0.750000000000     0.575600000000     0.850650000000     0          
T        Si     0.750000000000     0.649700000000     0.888550000000     0          
T        Si     0.750000000000     0.720500000000     0.848050000000     0          
T        Si     0.651700000000     0.425400000000     0.813650000000     0          
T        Si     0.644650000000     0.354900000000     0.907900000000     0          
T        Si     0.656100000000     0.286800000000     0.809900000000     0          
T        Si     0.848300000000     0.574600000000     0.813650000000     0          
T        Si     0.855350000000     0.645100000000     0.907900000000     0          
T        Si     0.843900000000     0.713200000000     0.809900000000     0          
T        Si     0.651700000000     0.574600000000     0.686350000000     0          
T        Si     0.644650000000     0.645100000000     0.592100000000     0          
T        Si     0.656100000000     0.713200000000     0.690100000000     0          
T        Si     0.848300000000     0.425400000000     0.686350000000     0          
T        Si     0.855350000000     0.354900000000     0.592100000000     0          
T        Si     0.843900000000     0.286800000000     0.690100000000     0          
O        O      0.130850000000     0.111000000000     0.179800000000     0          
O        O      0.084250000000     0.071700000000     0.221050000000     0          
O        O      0.124650000000     0.036900000000     0.175500000000     0          
O        O      0.047850000000     0.079500000000     0.169150000000     0          
O        O      0.128500000000     0.184000000000     0.081050000000     0          
O        O      0.125000000000     0.136100000000     0.125000000000     0          
O        O      0.048100000000     0.152600000000     0.091600000000     0          
O        O      0.125000000000     0.250000000000     0.197500000000     0          
O        O      0.080950000000     0.192300000000     0.220700000000     0          
O        O      0.046650000000     0.227100000000     0.172550000000     0          
O        O      0.000000000000     0.189900000000     0.250000000000     0          
O        O      0.057200000000     0.131200000000     0.250000000000     0          
O        O      0.000000000000     0.427200000000     0.000000000000     0          
O        O      0.047850000000     0.000000000000     0.090750000000     0          
O        O      0.125000000000     0.000000000000     0.125000000000     0          
O        O      0.000000000000     0.107700000000     0.124250000000     0          
O        O      0.000000000000     0.036200000000     0.132150000000     0          
O        O      0.000000000000     0.178700000000     0.138750000000     0          
O        O      0.000000000000     0.250000000000     0.125000000000     0          
O        O      0.369150000000     0.889000000000     0.179800000000     0          
O        O      0.415750000000     0.928300000000     0.221050000000     0          
O        O      0.375350000000     0.963100000000     0.175500000000     0          
O        O      0.452150000000     0.920500000000     0.169150000000     0          
O        O      0.371500000000     0.816000000000     0.081050000000     0          
O        O      0.375000000000     0.863900000000     0.125000000000     0          
O        O      0.451900000000     0.847400000000     0.091600000000     0          
O        O      0.375000000000     0.750000000000     0.197500000000     0          
O        O      0.419050000000     0.807700000000     0.220700000000     0          
O        O      0.453350000000     0.772900000000     0.172550000000     0          
O        O      0.000000000000     0.810100000000     0.250000000000     0          
O        O      0.442800000000     0.868800000000     0.250000000000     0          
O        O      0.000000000000     0.572800000000     0.000000000000     0          
O        O      0.452150000000     0.000000000000     0.090750000000     0          
O        O      0.375000000000     0.000000000000     0.125000000000     0          
O        O      0.000000000000     0.892300000000     0.124250000000     0          
O        O      0.000000000000     0.963800000000     0.132150000000     0          
O        O      0.000000000000     0.821300000000     0.138750000000     0          
O        O      0.000000000000     0.750000000000     0.125000000000     0          
O        O      0.130850000000     0.889000000000     0.320200000000     0          
O        O      0.084250000000     0.928300000000     0.278950000000     0          
O        O      0.124650000000     0.963100000000     0.324500000000     0          
O        O      0.047850000000     0.920500000000     0.330850000000     0          
O        O      0.128500000000     0.816000000000     0.418950000000     0          
O        O      0.125000000000     0.863900000000     0.375000000000     0          
O        O      0.048100000000     0.847400000000     0.408400000000     0          
O        O      0.125000000000     0.750000000000     0.302500000000     0          
O        O      0.080950000000     0.807700000000     0.279300000000     0          
O        O      0.046650000000     0.772900000000     0.327450000000     0          
O        O      0.057200000000     0.868800000000     0.250000000000     0          
O        O      0.047850000000     0.000000000000     0.409250000000     0          
O        O      0.125000000000     0.000000000000     0.375000000000     0          
O        O      0.000000000000     0.892300000000     0.375750000000     0          
O        O      0.000000000000     0.963800000000     0.367850000000     0          
O        O      0.000000000000     0.821300000000     0.361250000000     0          
O        O      0.000000000000     0.750000000000     0.375000000000     0          
O        O      0.369150000000     0.111000000000     0.320200000000     0          
O        O      0.415750000000     0.071700000000     0.278950000000     0          
O        O      0.375350000000     0.036900000000     0.324500000000     0          
O        O      0.452150000000     0.079500000000     0.330850000000     0          
O        O      0.371500000000     0.184000000000     0.418950000000     0          
O        O      0.375000000000     0.136100000000     0.375000000000     0          
O        O      0.451900000000     0.152600000000     0.408400000000     0          
O        O      0.375000000000     0.250000000000     0.302500000000     0          
O        O      0.419050000000     0.192300000000     0.279300000000     0          
O        O      0.453350000000     0.227100000000     0.327450000000     0          
O        O      0.442800000000     0.131200000000     0.250000000000     0          
O        O      0.452150000000     0.000000000000     0.409250000000     0          
O        O      0.375000000000     0.000000000000     0.375000000000     0          
O        O      0.000000000000     0.107700000000     0.375750000000     0          
O        O      0.000000000000     0.036200000000     0.367850000000     0          
O        O      0.000000000000     0.178700000000     0.361250000000     0          
O        O      0.000000000000     0.250000000000     0.375000000000     0          
O        O      0.369150000000     0.889000000000     0.320200000000     0          
O        O      0.415750000000     0.928300000000     0.278950000000     0          
O        O      0.375350000000     0.963100000000     0.324500000000     0          
O        O      0.452150000000     0.920500000000     0.330850000000     0          
O        O      0.371500000000     0.816000000000     0.418950000000     0          
O        O      0.375000000000     0.863900000000     0.375000000000     0          
O        O      0.451900000000     0.847400000000     0.408400000000     0          
O        O      0.375000000000     0.750000000000     0.302500000000     0          
O        O      0.419050000000     0.807700000000     0.279300000000     0          
O        O      0.453350000000     0.772900000000     0.327450000000     0          
O        O      0.130850000000     0.111000000000     0.320200000000     0          
O        O      0.084250000000     0.071700000000     0.278950000000     0          
O        O      0.124650000000     0.036900000000     0.324500000000     0          
O        O      0.047850000000     0.079500000000     0.330850000000     0          
O        O      0.128500000000     0.184000000000     0.418950000000     0          
O        O      0.125000000000     0.136100000000     0.375000000000     0          
O        O      0.048100000000     0.152600000000     0.408400000000     0          
O        O      0.125000000000     0.250000000000     0.302500000000     0          
O        O      0.080950000000     0.192300000000     0.279300000000     0          
O        O      0.046650000000     0.227100000000     0.327450000000     0          
O        O      0.369150000000     0.111000000000     0.179800000000     0          
O        O      0.415750000000     0.071700000000     0.221050000000     0          
O        O      0.375350000000     0.036900000000     0.175500000000     0          
O        O      0.452150000000     0.079500000000     0.169150000000     0          
O        O      0.371500000000     0.184000000000     0.081050000000     0          
O        O      0.375000000000     0.136100000000     0.125000000000     0          
O        O      0.451900000000     0.152600000000     0.091600000000     0          
O        O      0.375000000000     0.250000000000     0.197500000000     0          
O        O      0.419050000000     0.192300000000     0.220700000000     0          
O        O      0.453350000000     0.227100000000     0.172550000000     0          
O        O      0.130850000000     0.889000000000     0.179800000000     0          
O        O      0.084250000000     0.928300000000     0.221050000000     0          
O        O      0.124650000000     0.963100000000     0.175500000000     0          
O        O      0.047850000000     0.920500000000     0.169150000000     0          
O        O      0.128500000000     0.816000000000     0.081050000000     0          
O        O      0.125000000000     0.863900000000     0.125000000000     0          
O        O      0.048100000000     0.847400000000     0.091600000000     0          
O        O      0.125000000000     0.750000000000     0.197500000000     0          
O        O      0.080950000000     0.807700000000     0.220700000000     0          
O        O      0.046650000000     0.772900000000     0.172550000000     0          
O        O      0.130850000000     0.611000000000     0.429800000000     0          
O        O      0.084250000000     0.571700000000     0.471050000000     0          
O        O      0.124650000000     0.536900000000     0.425500000000     0          
O        O      0.047850000000     0.579500000000     0.419150000000     0          
O        O      0.128500000000     0.684000000000     0.331050000000     0          
O        O      0.125000000000     0.636100000000     0.375000000000     0          
O        O      0.048100000000     0.652600000000     0.341600000000     0          
O        O      0.125000000000     0.750000000000     0.447500000000     0          
O        O      0.080950000000     0.692300000000     0.470700000000     0          
O        O      0.046650000000     0.727100000000     0.422550000000     0          
O        O      0.000000000000     0.689900000000     0.000000000000     0          
O        O      0.057200000000     0.631200000000     0.000000000000     0          
O        O      0.000000000000     0.927200000000     0.250000000000     0          
O        O      0.047850000000     0.500000000000     0.340750000000     0          
O        O      0.125000000000     0.500000000000     0.375000000000     0          
O        O      0.000000000000     0.607700000000     0.374250000000     0          
O        O      0.000000000000     0.536200000000     0.382150000000     0          
O        O      0.000000000000     0.678700000000     0.388750000000     0          
O        O      0.369150000000     0.389000000000     0.429800000000     0          
O        O      0.415750000000     0.428300000000     0.471050000000     0          
O        O      0.375350000000     0.463100000000     0.425500000000     0          
O        O      0.452150000000     0.420500000000     0.419150000000     0          
O        O      0.371500000000     0.316000000000     0.331050000000     0          
O        O      0.375000000000     0.363900000000     0.375000000000     0          
O        O      0.451900000000     0.347400000000     0.341600000000     0          
O        O      0.375000000000     0.250000000000     0.447500000000     0          
O        O      0.419050000000     0.307700000000     0.470700000000     0          
O        O      0.453350000000     0.272900000000     0.422550000000     0          
O        O      0.000000000000     0.310100000000     0.000000000000     0          
O        O      0.442800000000     0.368800000000     0.000000000000     0          
O        O      0.000000000000     0.072800000000     0.250000000000     0          
O        O      0.452150000000     0.500000000000     0.340750000000     0          
O        O      0.375000000000     0.500000000000     0.375000000000     0          
O        O      0.000000000000     0.392300000000     0.374250000000     0          
O        O      0.000000000000     0.463800000000     0.382150000000     0          
O        O      0.000000000000     0.321300000000     0.388750000000     0          
O        O      0.130850000000     0.389000000000     0.070200000000     0          
O        O      0.084250000000     0.428300000000     0.028950000000     0          
O        O      0.124650000000     0.463100000000     0.074500000000     0          
O        O      0.047850000000     0.420500000000     0.080850000000     0          
O        O      0.128500000000     0.316000000000     0.168950000000     0          
O        O      0.125000000000     0.363900000000     0.125000000000     0          
O        O      0.048100000000     0.347400000000     0.158400000000     0          
O        O      0.125000000000     0.250000000000     0.052500000000     0          
O        O      0.080950000000     0.307700000000     0.029300000000     0          
O        O      0.046650000000     0.272900000000     0.077450000000     0          
O        O      0.057200000000     0.368800000000     0.000000000000     0          
O        O      0.047850000000     0.500000000000     0.159250000000     0          
O        O      0.125000000000     0.500000000000     0.125000000000     0          
O        O      0.000000000000     0.392300000000     0.125750000000     0          
O        O      0.000000000000     0.463800000000     0.117850000000     0          
O        O      0.000000000000     0.321300000000     0.111250000000     0          
O        O      0.369150000000     0.611000000000     0.070200000000     0          
O        O      0.415750000000     0.571700000000     0.028950000000     0          
O        O      0.375350000000     0.536900000000     0.074500000000     0          
O        O      0.452150000000     0.579500000000     0.080850000000     0          
O        O      0.371500000000     0.684000000000     0.168950000000     0          
O        O      0.375000000000     0.636100000000     0.125000000000     0          
O        O      0.451900000000     0.652600000000     0.158400000000     0          
O        O      0.375000000000     0.750000000000     0.052500000000     0          
O        O      0.419050000000     0.692300000000     0.029300000000     0          
O        O      0.453350000000     0.727100000000     0.077450000000     0          
O        O      0.442800000000     0.631200000000     0.000000000000     0          
O        O      0.452150000000     0.500000000000     0.159250000000     0          
O        O      0.375000000000     0.500000000000     0.125000000000     0          
O        O      0.000000000000     0.607700000000     0.125750000000     0          
O        O      0.000000000000     0.536200000000     0.117850000000     0          
O        O      0.000000000000     0.678700000000     0.111250000000     0          
O        O      0.369150000000     0.389000000000     0.070200000000     0          
O        O      0.415750000000     0.428300000000     0.028950000000     0          
O        O      0.375350000000     0.463100000000     0.074500000000     0          
O        O      0.452150000000     0.420500000000     0.080850000000     0          
O        O      0.371500000000     0.316000000000     0.168950000000     0          
O        O      0.375000000000     0.363900000000     0.125000000000     0          
O        O      0.451900000000     0.347400000000     0.158400000000     0          
O        O      0.375000000000     0.250000000000     0.052500000000     0          
O        O      0.419050000000     0.307700000000     0.029300000000     0          
O        O      0.453350000000     0.272900000000     0.077450000000     0          
O        O      0.130850000000     0.611000000000     0.070200000000     0          
O        O      0.084250000000     0.571700000000     0.028950000000     0          
O        O      0.124650000000     0.536900000000     0.074500000000     0          
O        O      0.047850000000     0.579500000000     0.080850000000     0          
O        O      0.128500000000     0.684000000000     0.168950000000     0          
O        O      0.125000000000     0.636100000000     0.125000000000     0          
O        O      0.048100000000     0.652600000000     0.158400000000     0          
O        O      0.125000000000     0.750000000000     0.052500000000     0          
O        O      0.080950000000     0.692300000000     0.029300000000     0          
O        O      0.046650000000     0.727100000000     0.077450000000     0          
O        O      0.369150000000     0.611000000000     0.429800000000     0          
O        O      0.415750000000     0.571700000000     0.471050000000     0          
O        O      0.375350000000     0.536900000000     0.425500000000     0          
O        O      0.452150000000     0.579500000000     0.419150000000     0          
O        O      0.371500000000     0.684000000000     0.331050000000     0          
O        O      0.375000000000     0.636100000000     0.375000000000     0          
O        O      0.451900000000     0.652600000000     0.341600000000     0          
O        O      0.375000000000     0.750000000000     0.447500000000     0          
O        O      0.419050000000     0.692300000000     0.470700000000     0          
O        O      0.453350000000     0.727100000000     0.422550000000     0          
O        O      0.130850000000     0.389000000000     0.429800000000     0          
O        O      0.084250000000     0.428300000000     0.471050000000     0          
O        O      0.124650000000     0.463100000000     0.425500000000     0          
O        O      0.047850000000     0.420500000000     0.419150000000     0          
O        O      0.128500000000     0.316000000000     0.331050000000     0          
O        O      0.125000000000     0.363900000000     0.375000000000     0          
O        O      0.048100000000     0.347400000000     0.341600000000     0          
O        O      0.125000000000     0.250000000000     0.447500000000     0          
O        O      0.080950000000     0.307700000000     0.470700000000     0          
O        O      0.046650000000     0.272900000000     0.422550000000     0          
O        O      0.380850000000     0.111000000000     0.429800000000     0          
O        O      0.334250000000     0.071700000000     0.471050000000     0          
O        O      0.374650000000     0.036900000000     0.425500000000     0          
O        O      0.297850000000     0.079500000000     0.419150000000     0          
O        O      0.378500000000     0.184000000000     0.331050000000     0          
O        O      0.298100000000     0.152600000000     0.341600000000     0          
O        O      0.330950000000     0.192300000000     0.470700000000     0          
O        O      0.296650000000     0.227100000000     0.422550000000     0          
O        O      0.250000000000     0.189900000000     0.000000000000     0          
O        O      0.307200000000     0.131200000000     0.000000000000     0          
O        O      0.250000000000     0.427200000000     0.250000000000     0          
O        O      0.297850000000     0.000000000000     0.340750000000     0          
O        O      0.250000000000     0.107700000000     0.374250000000     0          
O        O      0.250000000000     0.036200000000     0.382150000000     0          
O        O      0.250000000000     0.178700000000     0.388750000000     0          
O        O      0.250000000000     0.250000000000     0.375000000000     0          
O        O      0.119150000000     0.889000000000     0.429800000000     0          
O        O      0.165750000000     0.928300000000     0.471050000000     0          
O        O      0.125350000000     0.963100000000     0.425500000000     0          
O        O      0.202150000000     0.920500000000     0.419150000000     0          
O        O      0.121500000000     0.816000000000     0.331050000000     0          
O        O      0.201900000000     0.847400000000     0.341600000000     0          
O        O      0.169050000000     0.807700000000     0.470700000000     0          
O        O      0.203350000000     0.772900000000     0.422550000000     0          
O        O      0.250000000000     0.810100000000     0.000000000000     0          
O        O      0.192800000000     0.868800000000     0.000000000000     0          
O        O      0.250000000000     0.572800000000     0.250000000000     0          
O        O      0.202150000000     0.000000000000     0.340750000000     0          
O        O      0.250000000000     0.892300000000     0.374250000000     0          
O        O      0.250000000000     0.963800000000     0.382150000000     0          
O        O      0.250000000000     0.821300000000     0.388750000000     0          
O        O      0.250000000000     0.750000000000     0.375000000000     0          
O        O      0.380850000000     0.889000000000     0.070200000000     0          
O        O      0.334250000000     0.928300000000     0.028950000000     0          
O        O      0.374650000000     0.963100000000     0.074500000000     0          
O        O      0.297850000000     0.920500000000     0.080850000000     0          
O        O      0.378500000000     0.816000000000     0.168950000000     0          
O        O      0.298100000000     0.847400000000     0.158400000000     0          
O        O      0.330950000000     0.807700000000     0.029300000000     0          
O        O      0.296650000000     0.772900000000     0.077450000000     0          
O        O      0.307200000000     0.868800000000     0.000000000000     0          
O        O      0.297850000000     0.000000000000     0.159250000000     0          
O        O      0.250000000000     0.892300000000     0.125750000000     0          
O        O      0.250000000000     0.963800000000     0.117850000000     0          
O        O      0.250000000000     0.821300000000     0.111250000000     0          
O        O      0.250000000000     0.750000000000     0.125000000000     0          
O        O      0.119150000000     0.111000000000     0.070200000000     0          
O        O      0.165750000000     0.071700000000     0.028950000000     0          
O        O      0.125350000000     0.036900000000     0.074500000000     0          
O        O      0.202150000000     0.079500000000     0.080850000000     0          
O        O      0.121500000000     0.184000000000     0.168950000000     0          
O        O      0.201900000000     0.152600000000     0.158400000000     0          
O        O      0.169050000000     0.192300000000     0.029300000000     0          
O        O      0.203350000000     0.227100000000     0.077450000000     0          
O        O      0.192800000000     0.131200000000     0.000000000000     0          
O        O      0.202150000000     0.000000000000     0.159250000000     0          
O        O      0.250000000000     0.107700000000     0.125750000000     0          
O        O      0.250000000000     0.036200000000     0.117850000000     0          
O        O      0.250000000000     0.178700000000     0.111250000000     0          
O        O      0.250000000000     0.250000000000     0.125000000000     0          
O        O      0.119150000000     0.889000000000     0.070200000000     0          
O        O      0.165750000000     0.928300000000     0.028950000000     0          
O        O      0.125350000000     0.963100000000     0.074500000000     0          
O        O      0.202150000000     0.920500000000     0.080850000000     0          
O        O      0.121500000000     0.816000000000     0.168950000000     0          
O        O      0.201900000000     0.847400000000     0.158400000000     0          
O        O      0.169050000000     0.807700000000     0.029300000000     0          
O        O      0.203350000000     0.772900000000     0.077450000000     0          
O        O      0.380850000000     0.111000000000     0.070200000000     0          
O        O      0.334250000000     0.071700000000     0.028950000000     0          
O        O      0.374650000000     0.036900000000     0.074500000000     0          
O        O      0.297850000000     0.079500000000     0.080850000000     0          
O        O      0.378500000000     0.184000000000     0.168950000000     0          
O        O      0.298100000000     0.152600000000     0.158400000000     0          
O        O      0.330950000000     0.192300000000     0.029300000000     0          
O        O      0.296650000000     0.227100000000     0.077450000000     0          
O        O      0.119150000000     0.111000000000     0.429800000000     0          
O        O      0.165750000000     0.071700000000     0.471050000000     0          
O        O      0.125350000000     0.036900000000     0.425500000000     0          
O        O      0.202150000000     0.079500000000     0.419150000000     0          
O        O      0.121500000000     0.184000000000     0.331050000000     0          
O        O      0.201900000000     0.152600000000     0.341600000000     0          
O        O      0.169050000000     0.192300000000     0.470700000000     0          
O        O      0.203350000000     0.227100000000     0.422550000000     0          
O        O      0.380850000000     0.889000000000     0.429800000000     0          
O        O      0.334250000000     0.928300000000     0.471050000000     0          
O        O      0.374650000000     0.963100000000     0.425500000000     0          
O        O      0.297850000000     0.920500000000     0.419150000000     0          
O        O      0.378500000000     0.816000000000     0.331050000000     0          
O        O      0.298100000000     0.847400000000     0.341600000000     0          
O        O      0.330950000000     0.807700000000     0.470700000000     0          
O        O      0.296650000000     0.772900000000     0.422550000000     0          
O        O      0.380850000000     0.611000000000     0.179800000000     0          
O        O      0.334250000000     0.571700000000     0.221050000000     0          
O        O      0.374650000000     0.536900000000     0.175500000000     0          
O        O      0.297850000000     0.579500000000     0.169150000000     0          
O        O      0.378500000000     0.684000000000     0.081050000000     0          
O        O      0.298100000000     0.652600000000     0.091600000000     0          
O        O      0.330950000000     0.692300000000     0.220700000000     0          
O        O      0.296650000000     0.727100000000     0.172550000000     0          
O        O      0.250000000000     0.689900000000     0.250000000000     0          
O        O      0.307200000000     0.631200000000     0.250000000000     0          
O        O      0.250000000000     0.927200000000     0.000000000000     0          
O        O      0.297850000000     0.500000000000     0.090750000000     0          
O        O      0.250000000000     0.607700000000     0.124250000000     0          
O        O      0.250000000000     0.536200000000     0.132150000000     0          
O        O      0.250000000000     0.678700000000     0.138750000000     0          
O        O      0.119150000000     0.389000000000     0.179800000000     0          
O        O      0.165750000000     0.428300000000     0.221050000000     0          
O        O      0.125350000000     0.463100000000     0.175500000000     0          
O        O      0.202150000000     0.420500000000     0.169150000000     0          
O        O      0.121500000000     0.316000000000     0.081050000000     0          
O        O      0.201900000000     0.347400000000     0.091600000000     0          
O        O      0.169050000000     0.307700000000     0.220700000000     0          
O        O      0.203350000000     0.272900000000     0.172550000000     0          
O        O      0.250000000000     0.310100000000     0.250000000000     0          
O        O      0.192800000000     0.368800000000     0.250000000000     0          
O        O      0.250000000000     0.072800000000     0.000000000000     0          
O        O      0.202150000000     0.500000000000     0.090750000000     0          
O        O      0.250000000000     0.392300000000     0.124250000000     0          
O        O      0.250000000000     0.463800000000     0.132150000000     0          
O        O      0.250000000000     0.321300000000     0.138750000000     0          
O        O      0.380850000000     0.389000000000     0.320200000000     0          
O        O      0.334250000000     0.428300000000     0.278950000000     0          
O        O      0.374650000000     0.463100000000     0.324500000000     0          
O        O      0.297850000000     0.420500000000     0.330850000000     0          
O        O      0.378500000000     0.316000000000     0.418950000000     0          
O        O      0.298100000000     0.347400000000     0.408400000000     0          
O        O      0.330950000000     0.307700000000     0.279300000000     0          
O        O      0.296650000000     0.272900000000     0.327450000000     0          
O        O      0.307200000000     0.368800000000     0.250000000000     0          
O        O      0.297850000000     0.500000000000     0.409250000000     0          
O        O      0.250000000000     0.392300000000     0.375750000000     0          
O        O      0.250000000000     0.463800000000     0.367850000000     0          
O        O      0.250000000000     0.321300000000     0.361250000000     0          
O        O      0.119150000000     0.611000000000     0.320200000000     0          
O        O      0.165750000000     0.571700000000     0.278950000000     0          
O        O      0.125350000000     0.536900000000     0.324500000000     0          
O        O      0.202150000000     0.579500000000     0.330850000000     0          
O        O      0.121500000000     0.684000000000     0.418950000000     0          
O        O      0.201900000000     0.652600000000     0.408400000000     0          
O        O      0.169050000000     0.692300000000     0.279300000000     0          
O        O      0.203350000000     0.727100000000     0.327450000000     0          
O        O      0.192800000000     0.631200000000     0.250000000000     0          
O        O      0.202150000000     0.500000000000     0.409250000000     0          
O        O      0.250000000000     0.607700000000     0.375750000000     0          
O        O      0.250000000000     0.536200000000     0.367850000000     0          
O        O      0.250000000000     0.678700000000     0.361250000000     0          
O        O      0.119150000000     0.389000000000     0.320200000000     0          
O        O      0.165750000000     0.428300000000     0.278950000000     0          
O        O      0.125350000000     0.463100000000     0.324500000000     0          
O        O      0.202150000000     0.420500000000     0.330850000000     0          
O        O      0.121500000000     0.316000000000     0.418950000000     0          
O        O      0.201900000000     0.347400000000     0.408400000000     0          
O        O      0.169050000000     0.307700000000     0.279300000000     0          
O        O      0.203350000000     0.272900000000     0.327450000000     0          
O        O      0.380850000000     0.611000000000     0.320200000000     0          
O        O      0.334250000000     0.571700000000     0.278950000000     0          
O        O      0.374650000000     0.536900000000     0.324500000000     0          
O        O      0.297850000000     0.579500000000     0.330850000000     0          
O        O      0.378500000000     0.684000000000     0.418950000000     0          
O        O      0.298100000000     0.652600000000     0.408400000000     0          
O        O      0.330950000000     0.692300000000     0.279300000000     0          
O        O      0.296650000000     0.727100000000     0.327450000000     0          
O        O      0.119150000000     0.611000000000     0.179800000000     0          
O        O      0.165750000000     0.571700000000     0.221050000000     0          
O        O      0.125350000000     0.536900000000     0.175500000000     0          
O        O      0.202150000000     0.579500000000     0.169150000000     0          
O        O      0.121500000000     0.684000000000     0.081050000000     0          
O        O      0.201900000000     0.652600000000     0.091600000000     0          
O        O      0.169050000000     0.692300000000     0.220700000000     0          
O        O      0.203350000000     0.727100000000     0.172550000000     0          
O        O      0.380850000000     0.389000000000     0.179800000000     0          
O        O      0.334250000000     0.428300000000     0.221050000000     0          
O        O      0.374650000000     0.463100000000     0.175500000000     0          
O        O      0.297850000000     0.420500000000     0.169150000000     0          
O        O      0.378500000000     0.316000000000     0.081050000000     0          
O        O      0.298100000000     0.347400000000     0.091600000000     0          
O        O      0.330950000000     0.307700000000     0.220700000000     0          
O        O      0.296650000000     0.272900000000     0.172550000000     0          
O        O      0.130850000000     0.111000000000     0.679800000000     0          
O        O      0.084250000000     0.071700000000     0.721050000000     0          
O        O      0.124650000000     0.036900000000     0.675500000000     0          
O        O      0.047850000000     0.079500000000     0.669150000000     0          
O        O      0.128500000000     0.184000000000     0.581050000000     0          
O        O      0.125000000000     0.136100000000     0.625000000000     0          
O        O      0.048100000000     0.152600000000     0.591600000000     0          
O        O      0.125000000000     0.250000000000     0.697500000000     0          
O        O      0.080950000000     0.192300000000     0.720700000000     0          
O        O      0.046650000000     0.227100000000     0.672550000000     0          
O        O      0.000000000000     0.189900000000     0.750000000000     0          
O        O      0.057200000000     0.131200000000     0.750000000000     0          
O        O      0.000000000000     0.427200000000     0.500000000000     0          
O        O      0.047850000000     0.000000000000     0.590750000000     0          
O        O      0.125000000000     0.000000000000     0.625000000000     0          
O        O      0.000000000000     0.107700000000     0.624250000000     0          
O        O      0.000000000000     0.036200000000     0.632150000000     0          
O        O      0.000000000000     0.178700000000     0.638750000000     0          
O        O      0.000000000000     0.250000000000     0.625000000000     0          
O        O      0.369150000000     0.889000000000     0.679800000000     0          
O        O      0.415750000000     0.928300000000     0.721050000000     0          
O        O      0.375350000000     0.963100000000     0.675500000000     0          
O        O      0.452150000000     0.920500000000     0.669150000000     0          
O        O      0.371500000000     0.816000000000     0.581050000000     0          
O        O      0.375000000000     0.863900000000     0.625000000000     0          
O        O      0.451900000000     0.847400000000     0.591600000000     0          
O        O      0.375000000000     0.750000000000     0.697500000000     0          
O        O      0.419050000000     0.807700000000     0.720700000000     0          
O        O      0.453350000000     0.772900000000     0.672550000000     0          
O        O      0.000000000000     0.810100000000     0.750000000000     0          
O        O      0.442800000000     0.868800000000     0.750000000000     0          
O        O      0.000000000000     0.572800000000     0.500000000000     0          
O        O      0.452150000000     0.000000000000     0.590750000000     0          
O        O      0.375000000000     0.000000000000     0.625000000000     0          
O        O      0.000000000000     0.892300000000     0.624250000000     0          
O        O      0.000000000000     0.963800000000     0.632150000000     0          
O        O      0.000000000000     0.821300000000     0.638750000000     0          
O        O      0.000000000000     0.750000000000     0.625000000000     0          
O        O      0.130850000000     0.889000000000     0.820200000000     0          
O        O      0.084250000000     0.928300000000     0.778950000000     0          
O        O      0.124650000000     0.963100000000     0.824500000000     0          
O        O      0.047850000000     0.920500000000     0.830850000000     0          
O        O      0.128500000000     0.816000000000     0.918950000000     0          
O        O      0.125000000000     0.863900000000     0.875000000000     0          
O        O      0.048100000000     0.847400000000     0.908400000000     0          
O        O      0.125000000000     0.750000000000     0.802500000000     0          
O        O      0.080950000000     0.807700000000     0.779300000000     0          
O        O      0.046650000000     0.772900000000     0.827450000000     0          
O        O      0.057200000000     0.868800000000     0.750000000000     0          
O        O      0.047850000000     0.000000000000     0.909250000000     0          
O        O      0.125000000000     0.000000000000     0.875000000000     0          
O        O      0.000000000000     0.892300000000     0.875750000000     0          
O        O      0.000000000000     0.963800000000     0.867850000000     0          
O        O      0.000000000000     0.821300000000     0.861250000000     0          
O        O      0.000000000000     0.750000000000     0.875000000000     0          
O        O      0.369150000000     0.111000000000     0.820200000000     0          
O        O      0.415750000000     0.071700000000     0.778950000000     0          
O        O      0.375350000000     0.036900000000     0.824500000000     0          
O        O      0.452150000000     0.079500000000     0.830850000000     0          
O        O      0.371500000000     0.184000000000     0.918950000000     0          
O        O      0.375000000000     0.136100000000     0.875000000000     0          
O        O      0.451900000000     0.152600000000     0.908400000000     0          
O        O      0.375000000000     0.250000000000     0.802500000000     0          
O        O      0.419050000000     0.192300000000     0.779300000000     0          
O        O      0.453350000000     0.227100000000     0.827450000000     0          
O        O      0.442800000000     0.131200000000     0.750000000000     0          
O        O      0.452150000000     0.000000000000     0.909250000000     0          
O        O      0.375000000000     0.000000000000     0.875000000000     0          
O        O      0.000000000000     0.107700000000     0.875750000000     0          
O        O      0.000000000000     0.036200000000     0.867850000000     0          
O        O      0.000000000000     0.178700000000     0.861250000000     0          
O        O      0.000000000000     0.250000000000     0.875000000000     0          
O        O      0.369150000000     0.889000000000     0.820200000000     0          
O        O      0.415750000000     0.928300000000     0.778950000000     0          
O        O      0.375350000000     0.963100000000     0.824500000000     0          
O        O      0.452150000000     0.920500000000     0.830850000000     0          
O        O      0.371500000000     0.816000000000     0.918950000000     0          
O        O      0.375000000000     0.863900000000     0.875000000000     0          
O        O      0.451900000000     0.847400000000     0.908400000000     0          
O        O      0.375000000000     0.750000000000     0.802500000000     0          
O        O      0.419050000000     0.807700000000     0.779300000000     0          
O        O      0.453350000000     0.772900000000     0.827450000000     0          
O        O      0.130850000000     0.111000000000     0.820200000000     0          
O        O      0.084250000000     0.071700000000     0.778950000000     0          
O        O      0.124650000000     0.036900000000     0.824500000000     0          
O        O      0.047850000000     0.079500000000     0.830850000000     0          
O        O      0.128500000000     0.184000000000     0.918950000000     0          
O        O      0.125000000000     0.136100000000     0.875000000000     0          
O        O      0.048100000000     0.152600000000     0.908400000000     0          
O        O      0.125000000000     0.250000000000     0.802500000000     0          
O        O      0.080950000000     0.192300000000     0.779300000000     0          
O        O      0.046650000000     0.227100000000     0.827450000000     0          
O        O      0.369150000000     0.111000000000     0.679800000000     0          
O        O      0.415750000000     0.071700000000     0.721050000000     0          
O        O      0.375350000000     0.036900000000     0.675500000000     0          
O        O      0.452150000000     0.079500000000     0.669150000000     0          
O        O      0.371500000000     0.184000000000     0.581050000000     0          
O        O      0.375000000000     0.136100000000     0.625000000000     0          
O        O      0.451900000000     0.152600000000     0.591600000000     0          
O        O      0.375000000000     0.250000000000     0.697500000000     0          
O        O      0.419050000000     0.192300000000     0.720700000000     0          
O        O      0.453350000000     0.227100000000     0.672550000000     0          
O        O      0.130850000000     0.889000000000     0.679800000000     0          
O        O      0.084250000000     0.928300000000     0.721050000000     0          
O        O      0.124650000000     0.963100000000     0.675500000000     0          
O        O      0.047850000000     0.920500000000     0.669150000000     0          
O        O      0.128500000000     0.816000000000     0.581050000000     0          
O        O      0.125000000000     0.863900000000     0.625000000000     0          
O        O      0.048100000000     0.847400000000     0.591600000000     0          
O        O      0.125000000000     0.750000000000     0.697500000000     0          
O        O      0.080950000000     0.807700000000     0.720700000000     0          
O        O      0.046650000000     0.772900000000     0.672550000000     0          
O        O      0.130850000000     0.611000000000     0.929800000000     0          
O        O      0.084250000000     0.571700000000     0.971050000000     0          
O        O      0.124650000000     0.536900000000     0.925500000000     0          
O        O      0.047850000000     0.579500000000     0.919150000000     0          
O        O      0.128500000000     0.684000000000     0.831050000000     0          
O        O      0.125000000000     0.636100000000     0.875000000000     0          
O        O      0.048100000000     0.652600000000     0.841600000000     0          
O        O      0.125000000000     0.750000000000     0.947500000000     0          
O        O      0.080950000000     0.692300000000     0.970700000000     0          
O        O      0.046650000000     0.727100000000     0.922550000000     0          
O        O      0.000000000000     0.689900000000     0.500000000000     0          
O        O      0.057200000000     0.631200000000     0.500000000000     0          
O        O      0.000000000000     0.927200000000     0.750000000000     0          
O        O      0.047850000000     0.500000000000     0.840750000000     0          
O        O      0.125000000000     0.500000000000     0.875000000000     0          
O        O      0.000000000000     0.607700000000     0.874250000000     0          
O        O      0.000000000000     0.536200000000     0.882150000000     0          
O        O      0.000000000000     0.678700000000     0.888750000000     0          
O        O      0.369150000000     0.389000000000     0.929800000000     0          
O        O      0.415750000000     0.428300000000     0.971050000000     0          
O        O      0.375350000000     0.463100000000     0.925500000000     0          
O        O      0.452150000000     0.420500000000     0.919150000000     0          
O        O      0.371500000000     0.316000000000     0.831050000000     0          
O        O      0.375000000000     0.363900000000     0.875000000000     0          
O        O      0.451900000000     0.347400000000     0.841600000000     0          
O        O      0.375000000000     0.250000000000     0.947500000000     0          
O        O      0.419050000000     0.307700000000     0.970700000000     0          
O        O      0.453350000000     0.272900000000     0.922550000000     0          
O        O      0.000000000000     0.310100000000     0.500000000000     0          
O        O      0.442800000000     0.368800000000     0.500000000000     0          
O        O      0.000000000000     0.072800000000     0.750000000000     0          
O        O      0.452150000000     0.500000000000     0.840750000000     0          
O        O      0.375000000000     0.500000000000     0.875000000000     0          
O        O      0.000000000000     0.392300000000     0.874250000000     0          
O        O      0.000000000000     0.463800000000     0.882150000000     0          
O        O      0.000000000000     0.321300000000     0.888750000000     0          
O        O      0.130850000000     0.389000000000     0.570200000000     0          
O        O      0.084250000000     0.428300000000     0.528950000000     0          
O        O      0.124650000000     0.463100000000     0.574500000000     0          
O        O      0.047850000000     0.420500000000     0.580850000000     0          
O        O      0.128500000000     0.316000000000     0.668950000000     0          
O        O      0.125000000000     0.363900000000     0.625000000000     0          
O        O      0.048100000000     0.347400000000     0.658400000000     0          
O        O      0.125000000000     0.250000000000     0.552500000000     0          
O        O      0.080950000000     0.307700000000     0.529300000000     0          
O        O      0.046650000000     0.272900000000     0.577450000000     0          
O        O      0.057200000000     0.368800000000     0.500000000000     0          
O        O      0.047850000000     0.500000000000     0.659250000000     0          
O        O      0.125000000000     0.500000000000     0.625000000000     0          
O        O      0.000000000000     0.392300000000     0.625750000000     0          
O        O      0.000000000000     0.463800000000     0.617850000000     0          
O        O      0.000000000000     0.321300000000     0.611250000000     0          
O        O      0.369150000000     0.611000000000     0.570200000000     0          
O        O      0.415750000000     0.571700000000     0.528950000000     0          
O        O      0.375350000000     0.536900000000     0.574500000000     0          
O        O      0.452150000000     0.579500000000     0.580850000000     0          
O        O      0.371500000000     0.684000000000     0.668950000000     0          
O        O      0.375000000000     0.636100000000     0.625000000000     0          
O        O      0.451900000000     0.652600000000     0.658400000000     0          
O        O      0.375000000000     0.750000000000     0.552500000000     0          
O        O      0.419050000000     0.692300000000     0.529300000000     0          
O        O      0.453350000000     0.727100000000     0.577450000000     0          
O        O      0.442800000000     0.631200000000     0.500000000000     0          
O        O      0.452150000000     0.500000000000     0.659250000000     0          
O        O      0.375000000000     0.500000000000     0.625000000000     0          
O        O      0.000000000000     0.607700000000     0.625750000000     0          
O        O      0.000000000000     0.536200000000     0.617850000000     0          
O        O      0.000000000000     0.678700000000     0.611250000000     0          
O        O      0.369150000000     0.389000000000     0.570200000000     0          
O        O      0.415750000000     0.428300000000     0.528950000000     0          
O        O      0.375350000000     0.463100000000     0.574500000000     0          
O        O      0.452150000000     0.420500000000     0.580850000000     0          
O        O      0.371500000000     0.316000000000     0.668950000000     0          
O        O      0.375000000000     0.363900000000     0.625000000000     0          
O        O      0.451900000000     0.347400000000     0.658400000000     0          
O        O      0.375000000000     0.250000000000     0.552500000000     0          
O        O      0.419050000000     0.307700000000     0.529300000000     0          
O        O      0.453350000000     0.272900000000     0.577450000000     0          
O        O      0.130850000000     0.611000000000     0.570200000000     0          
O        O      0.084250000000     0.571700000000     0.528950000000     0          
O        O      0.124650000000     0.536900000000     0.574500000000     0          
O        O      0.047850000000     0.579500000000     0.580850000000     0          
O        O      0.128500000000     0.684000000000     0.668950000000     0          
O        O      0.125000000000     0.636100000000     0.625000000000     0          
O        O      0.048100000000     0.652600000000     0.658400000000     0          
O        O      0.125000000000     0.750000000000     0.552500000000     0          
O        O      0.080950000000     0.692300000000     0.529300000000     0          
O        O      0.046650000000     0.727100000000     0.577450000000     0          
O        O      0.369150000000     0.611000000000     0.929800000000     0          
O        O      0.415750000000     0.571700000000     0.971050000000     0          
O        O      0.375350000000     0.536900000000     0.925500000000     0          
O        O      0.452150000000     0.579500000000     0.919150000000     0          
O        O      0.371500000000     0.684000000000     0.831050000000     0          
O        O      0.375000000000     0.636100000000     0.875000000000     0          
O        O      0.451900000000     0.652600000000     0.841600000000     0          
O        O      0.375000000000     0.750000000000     0.947500000000     0          
O        O      0.419050000000     0.692300000000     0.970700000000     0          
O        O      0.453350000000     0.727100000000     0.922550000000     0          
O        O      0.130850000000     0.389000000000     0.929800000000     0          
O        O      0.084250000000     0.428300000000     0.971050000000     0          
O        O      0.124650000000     0.463100000000     0.925500000000     0          
O        O      0.047850000000     0.420500000000     0.919150000000     0          
O        O      0.128500000000     0.316000000000     0.831050000000     0          
O        O      0.125000000000     0.363900000000     0.875000000000     0          
O        O      0.048100000000     0.347400000000     0.841600000000     0          
O        O      0.125000000000     0.250000000000     0.947500000000     0          
O        O      0.080950000000     0.307700000000     0.970700000000     0          
O        O      0.046650000000     0.272900000000     0.922550000000     0          
O        O      0.380850000000     0.111000000000     0.929800000000     0          
O        O      0.334250000000     0.071700000000     0.971050000000     0          
O        O      0.374650000000     0.036900000000     0.925500000000     0          
O        O      0.297850000000     0.079500000000     0.919150000000     0          
O        O      0.378500000000     0.184000000000     0.831050000000     0          
O        O      0.298100000000     0.152600000000     0.841600000000     0          
O        O      0.330950000000     0.192300000000     0.970700000000     0          
O        O      0.296650000000     0.227100000000     0.922550000000     0          
O        O      0.250000000000     0.189900000000     0.500000000000     0          
O        O      0.307200000000     0.131200000000     0.500000000000     0          
O        O      0.250000000000     0.427200000000     0.750000000000     0          
O        O      0.297850000000     0.000000000000     0.840750000000     0          
O        O      0.250000000000     0.107700000000     0.874250000000     0          
O        O      0.250000000000     0.036200000000     0.882150000000     0          
O        O      0.250000000000     0.178700000000     0.888750000000     0          
O        O      0.250000000000     0.250000000000     0.875000000000     0          
O        O      0.119150000000     0.889000000000     0.929800000000     0          
O        O      0.165750000000     0.928300000000     0.971050000000     0          
O        O      0.125350000000     0.963100000000     0.925500000000     0          
O        O      0.202150000000     0.920500000000     0.919150000000     0          
O        O      0.121500000000     0.816000000000     0.831050000000     0          
O        O      0.201900000000     0.847400000000     0.841600000000     0          
O        O      0.169050000000     0.807700000000     0.970700000000     0          
O        O      0.203350000000     0.772900000000     0.922550000000     0          
O        O      0.250000000000     0.810100000000     0.500000000000     0          
O        O      0.192800000000     0.868800000000     0.500000000000     0          
O        O      0.250000000000     0.572800000000     0.750000000000     0          
O        O      0.202150000000     0.000000000000     0.840750000000     0          
O        O      0.250000000000     0.892300000000     0.874250000000     0          
O        O      0.250000000000     0.963800000000     0.882150000000     0          
O        O      0.250000000000     0.821300000000     0.888750000000     0          
O        O      0.250000000000     0.750000000000     0.875000000000     0          
O        O      0.380850000000     0.889000000000     0.570200000000     0          
O        O      0.334250000000     0.928300000000     0.528950000000     0          
O        O      0.374650000000     0.963100000000     0.574500000000     0          
O        O      0.297850000000     0.920500000000     0.580850000000     0          
O        O      0.378500000000     0.816000000000     0.668950000000     0          
O        O      0.298100000000     0.847400000000     0.658400000000     0          
O        O      0.330950000000     0.807700000000     0.529300000000     0          
O        O      0.296650000000     0.772900000000     0.577450000000     0          
O        O      0.307200000000     0.868800000000     0.500000000000     0          
O        O      0.297850000000     0.000000000000     0.659250000000     0          
O        O      0.250000000000     0.892300000000     0.625750000000     0          
O        O      0.250000000000     0.963800000000     0.617850000000     0          
O        O      0.250000000000     0.821300000000     0.611250000000     0          
O        O      0.250000000000     0.750000000000     0.625000000000     0          
O        O      0.119150000000     0.111000000000     0.570200000000     0          
O        O      0.165750000000     0.071700000000     0.528950000000     0          
O        O      0.125350000000     0.036900000000     0.574500000000     0          
O        O      0.202150000000     0.079500000000     0.580850000000     0          
O        O      0.121500000000     0.184000000000     0.668950000000     0          
O        O      0.201900000000     0.152600000000     0.658400000000     0          
O        O      0.169050000000     0.192300000000     0.529300000000     0          
O        O      0.203350000000     0.227100000000     0.577450000000     0          
O        O      0.192800000000     0.131200000000     0.500000000000     0          
O        O      0.202150000000     0.000000000000     0.659250000000     0          
O        O      0.250000000000     0.107700000000     0.625750000000     0          
O        O      0.250000000000     0.036200000000     0.617850000000     0          
O        O      0.250000000000     0.178700000000     0.611250000000     0          
O        O      0.250000000000     0.250000000000     0.625000000000     0          
O        O      0.119150000000     0.889000000000     0.570200000000     0          
O        O      0.165750000000     0.928300000000     0.528950000000     0          
O        O      0.125350000000     0.963100000000     0.574500000000     0          
O        O      0.202150000000     0.920500000000     0.580850000000     0          
O        O      0.121500000000     0.816000000000     0.668950000000     0          
O        O      0.201900000000     0.847400000000     0.658400000000     0          
O        O      0.169050000000     0.807700000000     0.529300000000     0          
O        O      0.203350000000     0.772900000000     0.577450000000     0          
O        O      0.380850000000     0.111000000000     0.570200000000     0          
O        O      0.334250000000     0.071700000000     0.528950000000     0          
O        O      0.374650000000     0.036900000000     0.574500000000     0          
O        O      0.297850000000     0.079500000000     0.580850000000     0          
O        O      0.378500000000     0.184000000000     0.668950000000     0          
O        O      0.298100000000     0.152600000000     0.658400000000     0          
O        O      0.330950000000     0.192300000000     0.529300000000     0          
O        O      0.296650000000     0.227100000000     0.577450000000     0          
O        O      0.119150000000     0.111000000000     0.929800000000     0          
O        O      0.165750000000     0.071700000000     0.971050000000     0          
O        O      0.125350000000     0.036900000000     0.925500000000     0          
O        O      0.202150000000     0.079500000000     0.919150000000     0          
O        O      0.121500000000     0.184000000000     0.831050000000     0          
O        O      0.201900000000     0.152600000000     0.841600000000     0          
O        O      0.169050000000     0.192300000000     0.970700000000     0          
O        O      0.203350000000     0.227100000000     0.922550000000     0          
O        O      0.380850000000     0.889000000000     0.929800000000     0          
O        O      0.334250000000     0.928300000000     0.971050000000     0          
O        O      0.374650000000     0.963100000000     0.925500000000     0          
O        O      0.297850000000     0.920500000000     0.919150000000     0          
O        O      0.378500000000     0.816000000000     0.831050000000     0          
O        O      0.298100000000     0.847400000000     0.841600000000     0          
O        O      0.330950000000     0.807700000000     0.970700000000     0          
O        O      0.296650000000     0.772900000000     0.922550000000     0          
O        O      0.380850000000     0.611000000000     0.679800000000     0          
O        O      0.334250000000     0.571700000000     0.721050000000     0          
O        O      0.374650000000     0.536900000000     0.675500000000     0          
O        O      0.297850000000     0.579500000000     0.669150000000     0          
O        O      0.378500000000     0.684000000000     0.581050000000     0          
O        O      0.298100000000     0.652600000000     0.591600000000     0          
O        O      0.330950000000     0.692300000000     0.720700000000     0          
O        O      0.296650000000     0.727100000000     0.672550000000     0          
O        O      0.250000000000     0.689900000000     0.750000000000     0          
O        O      0.307200000000     0.631200000000     0.750000000000     0          
O        O      0.250000000000     0.927200000000     0.500000000000     0          
O        O      0.297850000000     0.500000000000     0.590750000000     0          
O        O      0.250000000000     0.607700000000     0.624250000000     0          
O        O      0.250000000000     0.536200000000     0.632150000000     0          
O        O      0.250000000000     0.678700000000     0.638750000000     0          
O        O      0.119150000000     0.389000000000     0.679800000000     0          
O        O      0.165750000000     0.428300000000     0.721050000000     0          
O        O      0.125350000000     0.463100000000     0.675500000000     0          
O        O      0.202150000000     0.420500000000     0.669150000000     0          
O        O      0.121500000000     0.316000000000     0.581050000000     0          
O        O      0.201900000000     0.347400000000     0.591600000000     0          
O        O      0.169050000000     0.307700000000     0.720700000000     0          
O        O      0.203350000000     0.272900000000     0.672550000000     0          
O        O      0.250000000000     0.310100000000     0.750000000000     0          
O        O      0.192800000000     0.368800000000     0.750000000000     0          
O        O      0.250000000000     0.072800000000     0.500000000000     0          
O        O      0.202150000000     0.500000000000     0.590750000000     0          
O        O      0.250000000000     0.392300000000     0.624250000000     0          
O        O      0.250000000000     0.463800000000     0.632150000000     0          
O        O      0.250000000000     0.321300000000     0.638750000000     0          
O        O      0.380850000000     0.389000000000     0.820200000000     0          
O        O      0.334250000000     0.428300000000     0.778950000000     0          
O        O      0.374650000000     0.463100000000     0.824500000000     0          
O        O      0.297850000000     0.420500000000     0.830850000000     0          
O        O      0.378500000000     0.316000000000     0.918950000000     0          
O        O      0.298100000000     0.347400000000     0.908400000000     0          
O        O      0.330950000000     0.307700000000     0.779300000000     0          
O        O      0.296650000000     0.272900000000     0.827450000000     0          
O        O      0.307200000000     0.368800000000     0.750000000000     0          
O        O      0.297850000000     0.500000000000     0.909250000000     0          
O        O      0.250000000000     0.392300000000     0.875750000000     0          
O        O      0.250000000000     0.463800000000     0.867850000000     0          
O        O      0.250000000000     0.321300000000     0.861250000000     0          
O        O      0.119150000000     0.611000000000     0.820200000000     0          
O        O      0.165750000000     0.571700000000     0.778950000000     0          
O        O      0.125350000000     0.536900000000     0.824500000000     0          
O        O      0.202150000000     0.579500000000     0.830850000000     0          
O        O      0.121500000000     0.684000000000     0.918950000000     0          
O        O      0.201900000000     0.652600000000     0.908400000000     0          
O        O      0.169050000000     0.692300000000     0.779300000000     0          
O        O      0.203350000000     0.727100000000     0.827450000000     0          
O        O      0.192800000000     0.631200000000     0.750000000000     0          
O        O      0.202150000000     0.500000000000     0.909250000000     0          
O        O      0.250000000000     0.607700000000     0.875750000000     0          
O        O      0.250000000000     0.536200000000     0.867850000000     0          
O        O      0.250000000000     0.678700000000     0.861250000000     0          
O        O      0.119150000000     0.389000000000     0.820200000000     0          
O        O      0.165750000000     0.428300000000     0.778950000000     0          
O        O      0.125350000000     0.463100000000     0.824500000000     0          
O        O      0.202150000000     0.420500000000     0.830850000000     0          
O        O      0.121500000000     0.316000000000     0.918950000000     0          
O        O      0.201900000000     0.347400000000     0.908400000000     0          
O        O      0.169050000000     0.307700000000     0.779300000000     0          
O        O      0.203350000000     0.272900000000     0.827450000000     0          
O        O      0.380850000000     0.611000000000     0.820200000000     0          
O        O      0.334250000000     0.571700000000     0.778950000000     0          
O        O      0.374650000000     0.536900000000     0.824500000000     0          
O        O      0.297850000000     0.579500000000     0.830850000000     0          
O        O      0.378500000000     0.684000000000     0.918950000000     0          
O        O      0.298100000000     0.652600000000     0.908400000000     0          
O        O      0.330950000000     0.692300000000     0.779300000000     0          
O        O      0.296650000000     0.727100000000     0.827450000000     0          
O        O      0.119150000000     0.611000000000     0.679800000000     0          
O        O      0.165750000000     0.571700000000     0.721050000000     0          
O        O      0.125350000000     0.536900000000     0.675500000000     0          
O        O      0.202150000000     0.579500000000     0.669150000000     0          
O        O      0.121500000000     0.684000000000     0.581050000000     0          
O        O      0.201900000000     0.652600000000     0.591600000000     0          
O        O      0.169050000000     0.692300000000     0.720700000000     0          
O        O      0.203350000000     0.727100000000     0.672550000000     0          
O        O      0.380850000000     0.389000000000     0.679800000000     0          
O        O      0.334250000000     0.428300000000     0.721050000000     0          
O        O      0.374650000000     0.463100000000     0.675500000000     0          
O        O      0.297850000000     0.420500000000     0.669150000000     0          
O        O      0.378500000000     0.316000000000     0.581050000000     0          
O        O      0.298100000000     0.347400000000     0.591600000000     0          
O        O      0.330950000000     0.307700000000     0.720700000000     0          
O        O      0.296650000000     0.272900000000     0.672550000000     0          
O        O      0.630850000000     0.111000000000     0.179800000000     0          
O        O      0.584250000000     0.071700000000     0.221050000000     0          
O        O      0.624650000000     0.036900000000     0.175500000000     0          
O        O      0.547850000000     0.079500000000     0.169150000000     0          
O        O      0.628500000000     0.184000000000     0.081050000000     0          
O        O      0.625000000000     0.136100000000     0.125000000000     0          
O        O      0.548100000000     0.152600000000     0.091600000000     0          
O        O      0.625000000000     0.250000000000     0.197500000000     0          
O        O      0.580950000000     0.192300000000     0.220700000000     0          
O        O      0.546650000000     0.227100000000     0.172550000000     0          
O        O      0.500000000000     0.189900000000     0.250000000000     0          
O        O      0.557200000000     0.131200000000     0.250000000000     0          
O        O      0.500000000000     0.427200000000     0.000000000000     0          
O        O      0.547850000000     0.000000000000     0.090750000000     0          
O        O      0.625000000000     0.000000000000     0.125000000000     0          
O        O      0.500000000000     0.107700000000     0.124250000000     0          
O        O      0.500000000000     0.036200000000     0.132150000000     0          
O        O      0.500000000000     0.178700000000     0.138750000000     0          
O        O      0.500000000000     0.250000000000     0.125000000000     0          
O        O      0.869150000000     0.889000000000     0.179800000000     0          
O        O      0.915750000000     0.928300000000     0.221050000000     0          
O        O      0.875350000000     0.963100000000     0.175500000000     0          
O        O      0.952150000000     0.920500000000     0.169150000000     0          
O        O      0.871500000000     0.816000000000     0.081050000000     0          
O        O      0.875000000000     0.863900000000     0.125000000000     0          
O        O      0.951900000000     0.847400000000     0.091600000000     0          
O        O      0.875000000000     0.750000000000     0.197500000000     0          
O        O      0.919050000000     0.807700000000     0.220700000000     0          
O        O      0.953350000000     0.772900000000     0.172550000000     0          
O        O      0.500000000000     0.810100000000     0.250000000000     0          
O        O      0.942800000000     0.868800000000     0.250000000000     0          
O        O      0.500000000000     0.572800000000     0.000000000000     0          
O        O      0.952150000000     0.000000000000     0.090750000000     0          
O        O      0.875000000000     0.000000000000     0.125000000000     0          
O        O      0.500000000000     0.892300000000     0.124250000000     0          
O        O      0.500000000000     0.963800000000     0.132150000000     0          
O        O      0.500000000000     0.821300000000     0.138750000000     0          
O        O      0.500000000000     0.750000000000     0.125000000000     0          
O        O      0.630850000000     0.889000000000     0.320200000000     0          
O        O      0.584250000000     0.928300000000     0.278950000000     0          
O        O      0.624650000000     0.963100000000     0.324500000000     0          
O        O      0.547850000000     0.920500000000     0.330850000000     0          
O        O      0.628500000000     0.816000000000     0.418950000000     0          
O        O      0.625000000000     0.863900000000     0.375000000000     0          
O        O      0.548100000000     0.847400000000     0.408400000000     0          
O        O      0.625000000000     0.750000000000     0.302500000000     0          
O        O      0.580950000000     0.807700000000     0.279300000000     0          
O        O      0.546650000000     0.772900000000     0.327450000000     0          
O        O      0.557200000000     0.868800000000     0.250000000000     0          
O        O      0.547850000000     0.000000000000     0.409250000000     0          
O        O      0.625000000000     0.000000000000     0.375000000000     0          
O        O      0.500000000000     0.892300000000     0.375750000000     0          
O        O      0.500000000000     0.963800000000     0.367850000000     0          
O        O      0.500000000000     0.821300000000     0.361250000000     0          
O        O      0.500000000000     0.750000000000     0.375000000000     0          
O        O      0.869150000000     0.111000000000     0.320200000000     0          
O        O      0.915750000000     0.071700000000     0.278950000000     0          
O        O      0.875350000000     0.036900000000     0.324500000000     0          
O        O      0.952150000000     0.079500000000     0.330850000000     0          
O        O      0.871500000000     0.184000000000     0.418950000000     0          
O        O      0.875000000000     0.136100000000     0.375000000000     0          
O        O      0.951900000000     0.152600000000     0.408400000000     0          
O        O      0.875000000000     0.250000000000     0.302500000000     0          
O        O      0.919050000000     0.192300000000     0.279300000000     0          
O        O      0.953350000000     0.227100000000     0.327450000000     0          
O        O      0.942800000000     0.131200000000     0.250000000000     0          
O        O      0.952150000000     0.000000000000     0.409250000000     0          
O        O      0.875000000000     0.000000000000     0.375000000000     0          
O        O      0.500000000000     0.107700000000     0.375750000000     0          
O        O      0.500000000000     0.036200000000     0.367850000000     0          
O        O      0.500000000000     0.178700000000     0.361250000000     0          
O        O      0.500000000000     0.250000000000     0.375000000000     0          
O        O      0.869150000000     0.889000000000     0.320200000000     0          
O        O      0.915750000000     0.928300000000     0.278950000000     0          
O        O      0.875350000000     0.963100000000     0.324500000000     0          
O        O      0.952150000000     0.920500000000     0.330850000000     0          
O        O      0.871500000000     0.816000000000     0.418950000000     0          
O        O      0.875000000000     0.863900000000     0.375000000000     0          
O        O      0.951900000000     0.847400000000     0.408400000000     0          
O        O      0.875000000000     0.750000000000     0.302500000000     0          
O        O      0.919050000000     0.807700000000     0.279300000000     0          
O        O      0.953350000000     0.772900000000     0.327450000000     0          
O        O      0.630850000000     0.111000000000     0.320200000000     0          
O        O      0.584250000000     0.071700000000     0.278950000000     0          
O        O      0.624650000000     0.036900000000     0.324500000000     0          
O        O      0.547850000000     0.079500000000     0.330850000000     0          
O        O      0.628500000000     0.184000000000     0.418950000000     0          
O        O      0.625000000000     0.136100000000     0.375000000000     0          
O        O      0.548100000000     0.152600000000     0.408400000000     0          
O        O      0.625000000000     0.250000000000     0.302500000000     0          
O        O      0.580950000000     0.192300000000     0.279300000000     0          
O        O      0.546650000000     0.227100000000     0.327450000000     0          
O        O      0.869150000000     0.111000000000     0.179800000000     0          
O        O      0.915750000000     0.071700000000     0.221050000000     0          
O        O      0.875350000000     0.036900000000     0.175500000000     0          
O        O      0.952150000000     0.079500000000     0.169150000000     0          
O        O      0.871500000000     0.184000000000     0.081050000000     0          
O        O      0.875000000000     0.136100000000     0.125000000000     0          
O        O      0.951900000000     0.152600000000     0.091600000000     0          
O        O      0.875000000000     0.250000000000     0.197500000000     0          
O        O      0.919050000000     0.192300000000     0.220700000000     0          
O        O      0.953350000000     0.227100000000     0.172550000000     0          
O        O      0.630850000000     0.889000000000     0.179800000000     0          
O        O      0.584250000000     0.928300000000     0.221050000000     0          
O        O      0.624650000000     0.963100000000     0.175500000000     0          
O        O      0.547850000000     0.920500000000     0.169150000000     0          
O        O      0.628500000000     0.816000000000     0.081050000000     0          
O        O      0.625000000000     0.863900000000     0.125000000000     0          
O        O      0.548100000000     0.847400000000     0.091600000000     0          
O        O      0.625000000000     0.750000000000     0.197500000000     0          
O        O      0.580950000000     0.807700000000     0.220700000000     0          
O        O      0.546650000000     0.772900000000     0.172550000000     0          
O        O      0.630850000000     0.611000000000     0.429800000000     0          
O        O      0.584250000000     0.571700000000     0.471050000000     0          
O        O      0.624650000000     0.536900000000     0.425500000000     0          
O        O      0.547850000000     0.579500000000     0.419150000000     0          
O        O      0.628500000000     0.684000000000     0.331050000000     0          
O        O      0.625000000000     0.636100000000     0.375000000000     0          
O        O      0.548100000000     0.652600000000     0.341600000000     0          
O        O      0.625000000000     0.750000000000     0.447500000000     0          
O        O      0.580950000000     0.692300000000     0.470700000000     0          
O        O      0.546650000000     0.727100000000     0.422550000000     0          
O        O      0.500000000000     0.689900000000     0.000000000000     0          
O        O      0.557200000000     0.631200000000     0.000000000000     0          
O        O      0.500000000000     0.927200000000     0.250000000000     0          
O        O      0.547850000000     0.500000000000     0.340750000000     0          
O        O      0.625000000000     0.500000000000     0.375000000000     0          
O        O      0.500000000000     0.607700000000     0.374250000000     0          
O        O      0.500000000000     0.536200000000     0.382150000000     0          
O        O      0.500000000000     0.678700000000     0.388750000000     0          
O        O      0.869150000000     0.389000000000     0.429800000000     0          
O        O      0.915750000000     0.428300000000     0.471050000000     0          
O        O      0.875350000000     0.463100000000     0.425500000000     0          
O        O      0.952150000000     0.420500000000     0.419150000000     0          
O        O      0.871500000000     0.316000000000     0.331050000000     0          
O        O      0.875000000000     0.363900000000     0.375000000000     0          
O        O      0.951900000000     0.347400000000     0.341600000000     0          
O        O      0.875000000000     0.250000000000     0.447500000000     0          
O        O      0.919050000000     0.307700000000     0.470700000000     0          
O        O      0.953350000000     0.272900000000     0.422550000000     0          
O        O      0.500000000000     0.310100000000     0.000000000000     0          
O        O      0.942800000000     0.368800000000     0.000000000000     0          
O        O      0.500000000000     0.072800000000     0.250000000000     0          
O        O      0.952150000000     0.500000000000     0.340750000000     0          
O        O      0.875000000000     0.500000000000     0.375000000000     0          
O        O      0.500000000000     0.392300000000     0.374250000000     0          
O        O      0.500000000000     0.463800000000     0.382150000000     0          
O        O      0.500000000000     0.321300000000     0.388750000000     0          
O        O      0.630850000000     0.389000000000     0.070200000000     0          
O        O      0.584250000000     0.428300000000     0.028950000000     0          
O        O      0.624650000000     0.463100000000     0.074500000000     0          
O        O      0.547850000000     0.420500000000     0.080850000000     0          
O        O      0.628500000000     0.316000000000     0.168950000000     0          
O        O      0.625000000000     0.363900000000     0.125000000000     0          
O        O      0.548100000000     0.347400000000     0.158400000000     0          
O        O      0.625000000000     0.250000000000     0.052500000000     0          
O        O      0.580950000000     0.307700000000     0.029300000000     0          
O        O      0.546650000000     0.272900000000     0.077450000000     0          
O        O      0.557200000000     0.368800000000     0.000000000000     0          
O        O      0.547850000000     0.500000000000     0.159250000000     0          
O        O      0.625000000000     0.500000000000     0.125000000000     0          
O        O      0.500000000000     0.392300000000     0.125750000000     0          
O        O      0.500000000000     0.463800000000     0.117850000000     0          
O        O      0.500000000000     0.321300000000     0.111250000000     0          
O        O      0.869150000000     0.611000000000     0.070200000000     0          
O        O      0.915750000000     0.571700000000     0.028950000000     0          
O        O      0.875350000000     0.536900000000     0.074500000000     0          
O        O      0.952150000000     0.579500000000     0.080850000000     0          
O        O      0.871500000000     0.684000000000     0.168950000000     0          
O        O      0.875000000000     0.636100000000     0.125000000000     0          
O        O      0.951900000000     0.652600000000     0.158400000000     0          
O        O      0.875000000000     0.750000000000     0.052500000000     0          
O        O      0.919050000000     0.692300000000     0.029300000000     0          
O        O      0.953350000000     0.727100000000     0.077450000000     0          
O        O      0.942800000000     0.631200000000     0.000000000000     0          
O        O      0.952150000000     0.500000000000     0.159250000000     0          
O        O      0.875000000000     0.500000000000     0.125000000000     0          
O        O      0.500000000000     0.607700000000     0.125750000000     0          
O        O      0.500000000000     0.536200000000     0.117850000000     0          
O        O      0.500000000000     0.678700000000     0.111250000000     0          
O        O      0.869150000000     0.389000000000     0.070200000000     0          
O        O      0.915750000000     0.428300000000     0.028950000000     0          
O        O      0.875350000000     0.463100000000     0.074500000000     0          
O        O      0.952150000000     0.420500000000     0.080850000000     0          
O        O      0.871500000000     0.316000000000     0.168950000000     0          
O        O      0.875000000000     0.363900000000     0.125000000000     0          
O        O      0.951900000000     0.347400000000     0.158400000000     0          
O        O      0.875000000000     0.250000000000     0.052500000000     0          
O        O      0.919050000000     0.307700000000     0.029300000000     0          
O        O      0.953350000000     0.272900000000     0.077450000000     0          
O        O      0.630850000000     0.611000000000     0.070200000000     0          
O        O      0.584250000000     0.571700000000     0.028950000000     0          
O        O      0.624650000000     0.536900000000     0.074500000000     0          
O        O      0.547850000000     0.579500000000     0.080850000000     0          
O        O      0.628500000000     0.684000000000     0.168950000000     0          
O        O      0.625000000000     0.636100000000     0.125000000000     0          
O        O      0.548100000000     0.652600000000     0.158400000000     0          
O        O      0.625000000000     0.750000000000     0.052500000000     0          
O        O      0.580950000000     0.692300000000     0.029300000000     0          
O        O      0.546650000000     0.727100000000     0.077450000000     0          
O        O      0.869150000000     0.611000000000     0.429800000000     0          
O        O      0.915750000000     0.571700000000     0.471050000000     0          
O        O      0.875350000000     0.536900000000     0.425500000000     0          
O        O      0.952150000000     0.579500000000     0.419150000000     0          
O        O      0.871500000000     0.684000000000     0.331050000000     0          
O        O      0.875000000000     0.636100000000     0.375000000000     0          
O        O      0.951900000000     0.652600000000     0.341600000000     0          
O        O      0.875000000000     0.750000000000     0.447500000000     0          
O        O      0.919050000000     0.692300000000     0.470700000000     0          
O        O      0.953350000000     0.727100000000     0.422550000000     0          
O        O      0.630850000000     0.389000000000     0.429800000000     0          
O        O      0.584250000000     0.428300000000     0.471050000000     0          
O        O      0.624650000000     0.463100000000     0.425500000000     0          
O        O      0.547850000000     0.420500000000     0.419150000000     0          
O        O      0.628500000000     0.316000000000     0.331050000000     0          
O        O      0.625000000000     0.363900000000     0.375000000000     0          
O        O      0.548100000000     0.347400000000     0.341600000000     0          
O        O      0.625000000000     0.250000000000     0.447500000000     0          
O        O      0.580950000000     0.307700000000     0.470700000000     0          
O        O      0.546650000000     0.272900000000     0.422550000000     0          
O        O      0.880850000000     0.111000000000     0.429800000000     0          
O        O      0.834250000000     0.071700000000     0.471050000000     0          
O        O      0.874650000000     0.036900000000     0.425500000000     0          
O        O      0.797850000000     0.079500000000     0.419150000000     0          
O        O      0.878500000000     0.184000000000     0.331050000000     0          
O        O      0.798100000000     0.152600000000     0.341600000000     0          
O        O      0.830950000000     0.192300000000     0.470700000000     0          
O        O      0.796650000000     0.227100000000     0.422550000000     0          
O        O      0.750000000000     0.189900000000     0.000000000000     0          
O        O      0.807200000000     0.131200000000     0.000000000000     0          
O        O      0.750000000000     0.427200000000     0.250000000000     0          
O        O      0.797850000000     0.000000000000     0.340750000000     0          
O        O      0.750000000000     0.107700000000     0.374250000000     0          
O        O      0.750000000000     0.036200000000     0.382150000000     0          
O        O      0.750000000000     0.178700000000     0.388750000000     0          
O        O      0.750000000000     0.250000000000     0.375000000000     0          
O        O      0.619150000000     0.889000000000     0.429800000000     0          
O        O      0.665750000000     0.928300000000     0.471050000000     0          
O        O      0.625350000000     0.963100000000     0.425500000000     0          
O        O      0.702150000000     0.920500000000     0.419150000000     0          
O        O      0.621500000000     0.816000000000     0.331050000000     0          
O        O      0.701900000000     0.847400000000     0.341600000000     0          
O        O      0.669050000000     0.807700000000     0.470700000000     0          
O        O      0.703350000000     0.772900000000     0.422550000000     0          
O        O      0.750000000000     0.810100000000     0.000000000000     0          
O        O      0.692800000000     0.868800000000     0.000000000000     0          
O        O      0.750000000000     0.572800000000     0.250000000000     0          
O        O      0.702150000000     0.000000000000     0.340750000000     0          
O        O      0.750000000000     0.892300000000     0.374250000000     0          
O        O      0.750000000000     0.963800000000     0.382150000000     0          
O        O      0.750000000000     0.821300000000     0.388750000000     0          
O        O      0.750000000000     0.750000000000     0.375000000000     0          
O        O      0.880850000000     0.889000000000     0.070200000000     0          
O        O      0.834250000000     0.928300000000     0.028950000000     0          
O        O      0.874650000000     0.963100000000     0.074500000000     0          
O        O      0.797850000000     0.920500000000     0.080850000000     0          
O        O      0.878500000000     0.816000000000     0.168950000000     0          
O        O      0.798100000000     0.847400000000     0.158400000000     0          
O        O      0.830950000000     0.807700000000     0.029300000000     0          
O        O      0.796650000000     0.772900000000     0.077450000000     0          
O        O      0.807200000000     0.868800000000     0.000000000000     0          
O        O      0.797850000000     0.000000000000     0.159250000000     0          
O        O      0.750000000000     0.892300000000     0.125750000000     0          
O        O      0.750000000000     0.963800000000     0.117850000000     0          
O        O      0.750000000000     0.821300000000     0.111250000000     0          
O        O      0.750000000000     0.750000000000     0.125000000000     0          
O        O      0.619150000000     0.111000000000     0.070200000000     0          
O        O      0.665750000000     0.071700000000     0.028950000000     0          
O        O      0.625350000000     0.036900000000     0.074500000000     0          
O        O      0.702150000000     0.079500000000     0.080850000000     0          
O        O      0.621500000000     0.184000000000     0.168950000000     0          
O        O      0.701900000000     0.152600000000     0.158400000000     0          
O        O      0.669050000000     0.192300000000     0.029300000000     0          
O        O      0.703350000000     0.227100000000     0.077450000000     0          
O        O      0.692800000000     0.131200000000     0.000000000000     0          
O        O      0.702150000000     0.000000000000     0.159250000000     0          
O        O      0.750000000000     0.107700000000     0.125750000000     0          
O        O      0.750000000000     0.036200000000     0.117850000000     0          
O        O      0.750000000000     0.178700000000     0.111250000000     0          
O        O      0.750000000000     0.250000000000     0.125000000000     0          
O        O      0.619150000000     0.889000000000     0.070200000000     0          
O        O      0.665750000000     0.928300000000     0.028950000000     0          
O        O      0.625350000000     0.963100000000     0.074500000000     0          
O        O      0.702150000000     0.920500000000     0.080850000000     0          
O        O      0.621500000000     0.816000000000     0.168950000000     0          
O        O      0.701900000000     0.847400000000     0.158400000000     0          
O        O      0.669050000000     0.807700000000     0.029300000000     0          
O        O      0.703350000000     0.772900000000     0.077450000000     0          
O        O      0.880850000000     0.111000000000     0.070200000000     0          
O        O      0.834250000000     0.071700000000     0.028950000000     0          
O        O      0.874650000000     0.036900000000     0.074500000000     0          
O        O      0.797850000000     0.079500000000     0.080850000000     0          
O        O      0.878500000000     0.184000000000     0.168950000000     0          
O        O      0.798100000000     0.152600000000     0.158400000000     0          
O        O      0.830950000000     0.192300000000     0.029300000000     0          
O        O      0.796650000000     0.227100000000     0.077450000000     0          
O        O      0.619150000000     0.111000000000     0.429800000000     0          
O        O      0.665750000000     0.071700000000     0.471050000000     0          
O        O      0.625350000000     0.036900000000     0.425500000000     0          
O        O      0.702150000000     0.079500000000     0.419150000000     0          
O        O      0.621500000000     0.184000000000     0.331050000000     0          
O        O      0.701900000000     0.152600000000     0.341600000000     0          
O        O      0.669050000000     0.192300000000     0.470700000000     0          
O        O      0.703350000000     0.227100000000     0.422550000000     0          
O        O      0.880850000000     0.889000000000     0.429800000000     0          
O        O      0.834250000000     0.928300000000     0.471050000000     0          
O        O      0.874650000000     0.963100000000     0.425500000000     0          
O        O      0.797850000000     0.920500000000     0.419150000000     0          
O        O      0.878500000000     0.816000000000     0.331050000000     0          
O        O      0.798100000000     0.847400000000     0.341600000000     0          
O        O      0.830950000000     0.807700000000     0.470700000000     0          
O        O      0.796650000000     0.772900000000     0.422550000000     0          
O        O      0.880850000000     0.611000000000     0.179800000000     0          
O        O      0.834250000000     0.571700000000     0.221050000000     0          
O        O      0.874650000000     0.536900000000     0.175500000000     0          
O        O      0.797850000000     0.579500000000     0.169150000000     0          
O        O      0.878500000000     0.684000000000     0.081050000000     0          
O        O      0.798100000000     0.652600000000     0.091600000000     0          
O        O      0.830950000000     0.692300000000     0.220700000000     0          
O        O      0.796650000000     0.727100000000     0.172550000000     0          
O        O      0.750000000000     0.689900000000     0.250000000000     0          
O        O      0.807200000000     0.631200000000     0.250000000000     0          
O        O      0.750000000000     0.927200000000     0.000000000000     0          
O        O      0.797850000000     0.500000000000     0.090750000000     0          
O        O      0.750000000000     0.607700000000     0.124250000000     0          
O        O      0.750000000000     0.536200000000     0.132150000000     0          
O        O      0.750000000000     0.678700000000     0.138750000000     0          
O        O      0.619150000000     0.389000000000     0.179800000000     0          
O        O      0.665750000000     0.428300000000     0.221050000000     0          
O        O      0.625350000000     0.463100000000     0.175500000000     0          
O        O      0.702150000000     0.420500000000     0.169150000000     0          
O        O      0.621500000000     0.316000000000     0.081050000000     0          
O        O      0.701900000000     0.347400000000     0.091600000000     0          
O        O      0.669050000000     0.307700000000     0.220700000000     0          
O        O      0.703350000000     0.272900000000     0.172550000000     0          
O        O      0.750000000000     0.310100000000     0.250000000000     0          
O        O      0.692800000000     0.368800000000     0.250000000000     0          
O        O      0.750000000000     0.072800000000     0.000000000000     0          
O        O      0.702150000000     0.500000000000     0.090750000000     0          
O        O      0.750000000000     0.392300000000     0.124250000000     0          
O        O      0.750000000000     0.463800000000     0.132150000000     0          
O        O      0.750000000000     0.321300000000     0.138750000000     0          
O        O      0.880850000000     0.389000000000     0.320200000000     0          
O        O      0.834250000000     0.428300000000     0.278950000000     0          
O        O      0.874650000000     0.463100000000     0.324500000000     0          
O        O      0.797850000000     0.420500000000     0.330850000000     0          
O        O      0.878500000000     0.316000000000     0.418950000000     0          
O        O      0.798100000000     0.347400000000     0.408400000000     0          
O        O      0.830950000000     0.307700000000     0.279300000000     0          
O        O      0.796650000000     0.272900000000     0.327450000000     0          
O        O      0.807200000000     0.368800000000     0.250000000000     0          
O        O      0.797850000000     0.500000000000     0.409250000000     0          
O        O      0.750000000000     0.392300000000     0.375750000000     0          
O        O      0.750000000000     0.463800000000     0.367850000000     0          
O        O      0.750000000000     0.321300000000     0.361250000000     0          
O        O      0.619150000000     0.611000000000     0.320200000000     0          
O        O      0.665750000000     0.571700000000     0.278950000000     0          
O        O      0.625350000000     0.536900000000     0.324500000000     0          
O        O      0.702150000000     0.579500000000     0.330850000000     0          
O        O      0.621500000000     0.684000000000     0.418950000000     0          
O        O      0.701900000000     0.652600000000     0.408400000000     0          
O        O      0.669050000000     0.692300000000     0.279300000000     0          
O        O      0.703350000000     0.727100000000     0.327450000000     0          
O        O      0.692800000000     0.631200000000     0.250000000000     0          
O        O      0.702150000000     0.500000000000     0.409250000000     0          
O        O      0.750000000000     0.607700000000     0.375750000000     0          
O        O      0.750000000000     0.536200000000     0.367850000000     0          
O        O      0.750000000000     0.678700000000     0.361250000000     0          
O        O      0.619150000000     0.389000000000     0.320200000000     0          
O        O      0.665750000000     0.428300000000     0.278950000000     0          
O        O      0.625350000000     0.463100000000     0.324500000000     0          
O        O      0.702150000000     0.420500000000     0.330850000000     0          
O        O      0.621500000000     0.316000000000     0.418950000000     0          
O        O      0.701900000000     0.347400000000     0.408400000000     0          
O        O      0.669050000000     0.307700000000     0.279300000000     0          
O        O      0.703350000000     0.272900000000     0.327450000000     0          
O        O      0.880850000000     0.611000000000     0.320200000000     0          
O        O      0.834250000000     0.571700000000     0.278950000000     0          
O        O      0.874650000000     0.536900000000     0.324500000000     0          
O        O      0.797850000000     0.579500000000     0.330850000000     0          
O        O      0.878500000000     0.684000000000     0.418950000000     0          
O        O      0.798100000000     0.652600000000     0.408400000000     0          
O        O      0.830950000000     0.692300000000     0.279300000000     0          
O        O      0.796650000000     0.727100000000     0.327450000000     0          
O        O      0.619150000000     0.611000000000     0.179800000000     0          
O        O      0.665750000000     0.571700000000     0.221050000000     0          
O        O      0.625350000000     0.536900000000     0.175500000000     0          
O        O      0.702150000000     0.579500000000     0.169150000000     0          
O        O      0.621500000000     0.684000000000     0.081050000000     0          
O        O      0.701900000000     0.652600000000     0.091600000000     0          
O        O      0.669050000000     0.692300000000     0.220700000000     0          
O        O      0.703350000000     0.727100000000     0.172550000000     0          
O        O      0.880850000000     0.389000000000     0.179800000000     0          
O        O      0.834250000000     0.428300000000     0.221050000000     0          
O        O      0.874650000000     0.463100000000     0.175500000000     0          
O        O      0.797850000000     0.420500000000     0.169150000000     0          
O        O      0.878500000000     0.316000000000     0.081050000000     0          
O        O      0.798100000000     0.347400000000     0.091600000000     0          
O        O      0.830950000000     0.307700000000     0.220700000000     0          
O        O      0.796650000000     0.272900000000     0.172550000000     0          
O        O      0.630850000000     0.111000000000     0.679800000000     0          
O        O      0.584250000000     0.071700000000     0.721050000000     0          
O        O      0.624650000000     0.036900000000     0.675500000000     0          
O        O      0.547850000000     0.079500000000     0.669150000000     0          
O        O      0.628500000000     0.184000000000     0.581050000000     0          
O        O      0.625000000000     0.136100000000     0.625000000000     0          
O        O      0.548100000000     0.152600000000     0.591600000000     0          
O        O      0.625000000000     0.250000000000     0.697500000000     0          
O        O      0.580950000000     0.192300000000     0.720700000000     0          
O        O      0.546650000000     0.227100000000     0.672550000000     0          
O        O      0.500000000000     0.189900000000     0.750000000000     0          
O        O      0.557200000000     0.131200000000     0.750000000000     0          
O        O      0.500000000000     0.427200000000     0.500000000000     0          
O        O      0.547850000000     0.000000000000     0.590750000000     0          
O        O      0.625000000000     0.000000000000     0.625000000000     0          
O        O      0.500000000000     0.107700000000     0.624250000000     0          
O        O      0.500000000000     0.036200000000     0.632150000000     0          
O        O      0.500000000000     0.178700000000     0.638750000000     0          
O        O      0.500000000000     0.250000000000     0.625000000000     0          
O        O      0.869150000000     0.889000000000     0.679800000000     0          
O        O      0.915750000000     0.928300000000     0.721050000000     0          
O        O      0.875350000000     0.963100000000     0.675500000000     0          
O        O      0.952150000000     0.920500000000     0.669150000000     0          
O        O      0.871500000000     0.816000000000     0.581050000000     0          
O        O      0.875000000000     0.863900000000     0.625000000000     0          
O        O      0.951900000000     0.847400000000     0.591600000000     0          
O        O      0.875000000000     0.750000000000     0.697500000000     0          
O        O      0.919050000000     0.807700000000     0.720700000000     0          
O        O      0.953350000000     0.772900000000     0.672550000000     0          
O        O      0.500000000000     0.810100000000     0.750000000000     0          
O        O      0.942800000000     0.868800000000     0.750000000000     0          
O        O      0.500000000000     0.572800000000     0.500000000000     0          
O        O      0.952150000000     0.000000000000     0.590750000000     0          
O        O      0.875000000000     0.000000000000     0.625000000000     0          
O        O      0.500000000000     0.892300000000     0.624250000000     0          
O        O      0.500000000000     0.963800000000     0.632150000000     0          
O        O      0.500000000000     0.821300000000     0.638750000000     0          
O        O      0.500000000000     0.750000000000     0.625000000000     0          
O        O      0.630850000000     0.889000000000     0.820200000000     0          
O        O      0.584250000000     0.928300000000     0.778950000000     0          
O        O      0.624650000000     0.963100000000     0.824500000000     0          
O        O      0.547850000000     0.920500000000     0.830850000000     0          
O        O      0.628500000000     0.816000000000     0.918950000000     0          
O        O      0.625000000000     0.863900000000     0.875000000000     0          
O        O      0.548100000000     0.847400000000     0.908400000000     0          
O        O      0.625000000000     0.750000000000     0.802500000000     0          
O        O      0.580950000000     0.807700000000     0.779300000000     0          
O        O      0.546650000000     0.772900000000     0.827450000000     0          
O        O      0.557200000000     0.868800000000     0.750000000000     0          
O        O      0.547850000000     0.000000000000     0.909250000000     0          
O        O      0.625000000000     0.000000000000     0.875000000000     0          
O        O      0.500000000000     0.892300000000     0.875750000000     0          
O        O      0.500000000000     0.963800000000     0.867850000000     0          
O        O      0.500000000000     0.821300000000     0.861250000000     0          
O        O      0.500000000000     0.750000000000     0.875000000000     0          
O        O      0.869150000000     0.111000000000     0.820200000000     0          
O        O      0.915750000000     0.071700000000     0.778950000000     0          
O        O      0.875350000000     0.036900000000     0.824500000000     0          
O        O      0.952150000000     0.079500000000     0.830850000000     0          
O        O      0.871500000000     0.184000000000     0.918950000000     0          
O        O      0.875000000000     0.136100000000     0.875000000000     0          
O        O      0.951900000000     0.152600000000     0.908400000000     0          
O        O      0.875000000000     0.250000000000     0.802500000000     0          
O        O      0.919050000000     0.192300000000     0.779300000000     0          
O        O      0.953350000000     0.227100000000     0.827450000000     0          
O        O      0.942800000000     0.131200000000     0.750000000000     0          
O        O      0.952150000000     0.000000000000     0.909250000000     0          
O        O      0.875000000000     0.000000000000     0.875000000000     0          
O        O      0.500000000000     0.107700000000     0.875750000000     0          
O        O      0.500000000000     0.036200000000     0.867850000000     0          
O        O      0.500000000000     0.178700000000     0.861250000000     0          
O        O      0.500000000000     0.250000000000     0.875000000000     0          
O        O      0.869150000000     0.889000000000     0.820200000000     0          
O        O      0.915750000000     0.928300000000     0.778950000000     0          
O        O      0.875350000000     0.963100000000     0.824500000000     0          
O        O      0.952150000000     0.920500000000     0.830850000000     0          
O        O      0.871500000000     0.816000000000     0.918950000000     0          
O        O      0.875000000000     0.863900000000     0.875000000000     0          
O        O      0.951900000000     0.847400000000     0.908400000000     0          
O        O      0.875000000000     0.750000000000     0.802500000000     0          
O        O      0.919050000000     0.807700000000     0.779300000000     0          
O        O      0.953350000000     0.772900000000     0.827450000000     0          
O        O      0.630850000000     0.111000000000     0.820200000000     0          
O        O      0.584250000000     0.071700000000     0.778950000000     0          
O        O      0.624650000000     0.036900000000     0.824500000000     0          
O        O      0.547850000000     0.079500000000     0.830850000000     0          
O        O      0.628500000000     0.184000000000     0.918950000000     0          
O        O      0.625000000000     0.136100000000     0.875000000000     0          
O        O      0.548100000000     0.152600000000     0.908400000000     0          
O        O      0.625000000000     0.250000000000     0.802500000000     0          
O        O      0.580950000000     0.192300000000     0.779300000000     0          
O        O      0.546650000000     0.227100000000     0.827450000000     0          
O        O      0.869150000000     0.111000000000     0.679800000000     0          
O        O      0.915750000000     0.071700000000     0.721050000000     0          
O        O      0.875350000000     0.036900000000     0.675500000000     0          
O        O      0.952150000000     0.079500000000     0.669150000000     0          
O        O      0.871500000000     0.184000000000     0.581050000000     0          
O        O      0.875000000000     0.136100000000     0.625000000000     0          
O        O      0.951900000000     0.152600000000     0.591600000000     0          
O        O      0.875000000000     0.250000000000     0.697500000000     0          
O        O      0.919050000000     0.192300000000     0.720700000000     0          
O        O      0.953350000000     0.227100000000     0.672550000000     0          
O        O      0.630850000000     0.889000000000     0.679800000000     0          
O        O      0.584250000000     0.928300000000     0.721050000000     0          
O        O      0.624650000000     0.963100000000     0.675500000000     0          
O        O      0.547850000000     0.920500000000     0.669150000000     0          
O        O      0.628500000000     0.816000000000     0.581050000000     0          
O        O      0.625000000000     0.863900000000     0.625000000000     0          
O        O      0.548100000000     0.847400000000     0.591600000000     0          
O        O      0.625000000000     0.750000000000     0.697500000000     0          
O        O      0.580950000000     0.807700000000     0.720700000000     0          
O        O      0.546650000000     0.772900000000     0.672550000000     0          
O        O      0.630850000000     0.611000000000     0.929800000000     0          
O        O      0.584250000000     0.571700000000     0.971050000000     0          
O        O      0.624650000000     0.536900000000     0.925500000000     0          
O        O      0.547850000000     0.579500000000     0.919150000000     0          
O        O      0.628500000000     0.684000000000     0.831050000000     0          
O        O      0.625000000000     0.636100000000     0.875000000000     0          
O        O      0.548100000000     0.652600000000     0.841600000000     0          
O        O      0.625000000000     0.750000000000     0.947500000000     0          
O        O      0.580950000000     0.692300000000     0.970700000000     0          
O        O      0.546650000000     0.727100000000     0.922550000000     0          
O        O      0.500000000000     0.689900000000     0.500000000000     0          
O        O      0.557200000000     0.631200000000     0.500000000000     0          
O        O      0.500000000000     0.927200000000     0.750000000000     0          
O        O      0.547850000000     0.500000000000     0.840750000000     0          
O        O      0.625000000000     0.500000000000     0.875000000000     0          
O        O      0.500000000000     0.607700000000     0.874250000000     0          
O        O      0.500000000000     0.536200000000     0.882150000000     0          
O        O      0.500000000000     0.678700000000     0.888750000000     0          
O        O      0.869150000000     0.389000000000     0.929800000000     0          
O        O      0.915750000000     0.428300000000     0.971050000000     0          
O        O      0.875350000000     0.463100000000     0.925500000000     0          
O        O      0.952150000000     0.420500000000     0.919150000000     0          
O        O      0.871500000000     0.316000000000     0.831050000000     0          
O        O      0.875000000000     0.363900000000     0.875000000000     0          
O        O      0.951900000000     0.347400000000     0.841600000000     0          
O        O      0.875000000000     0.250000000000     0.947500000000     0          
O        O      0.919050000000     0.307700000000     0.970700000000     0          
O        O      0.953350000000     0.272900000000     0.922550000000     0          
O        O      0.500000000000     0.310100000000     0.500000000000     0          
O        O      0.942800000000     0.368800000000     0.500000000000     0          
O        O      0.500000000000     0.072800000000     0.750000000000     0          
O        O      0.952150000000     0.500000000000     0.840750000000     0          
O        O      0.875000000000     0.500000000000     0.875000000000     0          
O        O      0.500000000000     0.392300000000     0.874250000000     0          
O        O      0.500000000000     0.463800000000     0.882150000000     0          
O        O      0.500000000000     0.321300000000     0.888750000000     0          
O        O      0.630850000000     0.389000000000     0.570200000000     0          
O        O      0.584250000000     0.428300000000     0.528950000000     0          
O        O      0.624650000000     0.463100000000     0.574500000000     0          
O        O      0.547850000000     0.420500000000     0.580850000000     0          
O        O      0.628500000000     0.316000000000     0.668950000000     0          
O        O      0.625000000000     0.363900000000     0.625000000000     0          
O        O      0.548100000000     0.347400000000     0.658400000000     0          
O        O      0.625000000000     0.250000000000     0.552500000000     0          
O        O      0.580950000000     0.307700000000     0.529300000000     0          
O        O      0.546650000000     0.272900000000     0.577450000000     0          
O        O      0.557200000000     0.368800000000     0.500000000000     0          
O        O      0.547850000000     0.500000000000     0.659250000000     0          
O        O      0.625000000000     0.500000000000     0.625000000000     0          
O        O      0.500000000000     0.392300000000     0.625750000000     0          
O        O      0.500000000000     0.463800000000     0.617850000000     0          
O        O      0.500000000000     0.321300000000     0.611250000000     0          
O        O      0.869150000000     0.611000000000     0.570200000000     0          
O        O      0.915750000000     0.571700000000     0.528950000000     0          
O        O      0.875350000000     0.536900000000     0.574500000000     0          
O        O      0.952150000000     0.579500000000     0.580850000000     0          
O        O      0.871500000000     0.684000000000     0.668950000000     0          
O        O      0.875000000000     0.636100000000     0.625000000000     0          
O        O      0.951900000000     0.652600000000     0.658400000000     0          
O        O      0.875000000000     0.750000000000     0.552500000000     0          
O        O      0.919050000000     0.692300000000     0.529300000000     0          
O        O      0.953350000000     0.727100000000     0.577450000000     0          
O        O      0.942800000000     0.631200000000     0.500000000000     0          
O        O      0.952150000000     0.500000000000     0.659250000000     0          
O        O      0.875000000000     0.500000000000     0.625000000000     0          
O        O      0.500000000000     0.607700000000     0.625750000000     0          
O        O      0.500000000000     0.536200000000     0.617850000000     0          
O        O      0.500000000000     0.678700000000     0.611250000000     0          
O        O      0.869150000000     0.389000000000     0.570200000000     0          
O        O      0.915750000000     0.428300000000     0.528950000000     0          
O        O      0.875350000000     0.463100000000     0.574500000000     0          
O        O      0.952150000000     0.420500000000     0.580850000000     0          
O        O      0.871500000000     0.316000000000     0.668950000000     0          
O        O      0.875000000000     0.363900000000     0.625000000000     0          
O        O      0.951900000000     0.347400000000     0.658400000000     0          
O        O      0.875000000000     0.250000000000     0.552500000000     0          
O        O      0.919050000000     0.307700000000     0.529300000000     0          
O        O      0.953350000000     0.272900000000     0.577450000000     0          
O        O      0.630850000000     0.611000000000     0.570200000000     0          
O        O      0.584250000000     0.571700000000     0.528950000000     0          
O        O      0.624650000000     0.536900000000     0.574500000000     0          
O        O      0.547850000000     0.579500000000     0.580850000000     0          
O        O      0.628500000000     0.684000000000     0.668950000000     0          
O        O      0.625000000000     0.636100000000     0.625000000000     0          
O        O      0.548100000000     0.652600000000     0.658400000000     0          
O        O      0.625000000000     0.750000000000     0.552500000000     0          
O        O      0.580950000000     0.692300000000     0.529300000000     0          
O        O      0.546650000000     0.727100000000     0.577450000000     0          
O        O      0.869150000000     0.611000000000     0.929800000000     0          
O        O      0.915750000000     0.571700000000     0.971050000000     0          
O        O      0.875350000000     0.536900000000     0.925500000000     0          
O        O      0.952150000000     0.579500000000     0.919150000000     0          
O        O      0.871500000000     0.684000000000     0.831050000000     0          
O        O      0.875000000000     0.636100000000     0.875000000000     0          
O        O      0.951900000000     0.652600000000     0.841600000000     0          
O        O      0.875000000000     0.750000000000     0.947500000000     0          
O        O      0.919050000000     0.692300000000     0.970700000000     0          
O        O      0.953350000000     0.727100000000     0.922550000000     0          
O        O      0.630850000000     0.389000000000     0.929800000000     0          
O        O      0.584250000000     0.428300000000     0.971050000000     0          
O        O      0.624650000000     0.463100000000     0.925500000000     0          
O        O      0.547850000000     0.420500000000     0.919150000000     0          
O        O      0.628500000000     0.316000000000     0.831050000000     0          
O        O      0.625000000000     0.363900000000     0.875000000000     0          
O        O      0.548100000000     0.347400000000     0.841600000000     0          
O        O      0.625000000000     0.250000000000     0.947500000000     0          
O        O      0.580950000000     0.307700000000     0.970700000000     0          
O        O      0.546650000000     0.272900000000     0.922550000000     0          
O        O      0.880850000000     0.111000000000     0.929800000000     0          
O        O      0.834250000000     0.071700000000     0.971050000000     0          
O        O      0.874650000000     0.036900000000     0.925500000000     0          
O        O      0.797850000000     0.079500000000     0.919150000000     0          
O        O      0.878500000000     0.184000000000     0.831050000000     0          
O        O      0.798100000000     0.152600000000     0.841600000000     0          
O        O      0.830950000000     0.192300000000     0.970700000000     0          
O        O      0.796650000000     0.227100000000     0.922550000000     0          
O        O      0.750000000000     0.189900000000     0.500000000000     0          
O        O      0.807200000000     0.131200000000     0.500000000000     0          
O        O      0.750000000000     0.427200000000     0.750000000000     0          
O        O      0.797850000000     0.000000000000     0.840750000000     0          
O        O      0.750000000000     0.107700000000     0.874250000000     0          
O        O      0.750000000000     0.036200000000     0.882150000000     0          
O        O      0.750000000000     0.178700000000     0.888750000000     0          
O        O      0.750000000000     0.250000000000     0.875000000000     0          
O        O      0.619150000000     0.889000000000     0.929800000000     0          
O        O      0.665750000000     0.928300000000     0.971050000000     0          
O        O      0.625350000000     0.963100000000     0.925500000000     0          
O        O      0.702150000000     0.920500000000     0.919150000000     0          
O        O      0.621500000000     0.816000000000     0.831050000000     0          
O        O      0.701900000000     0.847400000000     0.841600000000     0          
O        O      0.669050000000     0.807700000000     0.970700000000     0          
O        O      0.703350000000     0.772900000000     0.922550000000     0          
O        O      0.750000000000     0.810100000000     0.500000000000     0          
O        O      0.692800000000     0.868800000000     0.500000000000     0          
O        O      0.750000000000     0.572800000000     0.750000000000     0          
O        O      0.702150000000     0.000000000000     0.840750000000     0          
O        O      0.750000000000     0.892300000000     0.874250000000     0          
O        O      0.750000000000     0.963800000000     0.882150000000     0          
O        O      0.750000000000     0.821300000000     0.888750000000     0          
O        O      0.750000000000     0.750000000000     0.875000000000     0          
O        O      0.880850000000     0.889000000000     0.570200000000     0          
O        O      0.834250000000     0.928300000000     0.528950000000     0          
O        O      0.874650000000     0.963100000000     0.574500000000     0          
O        O      0.797850000000     0.920500000000     0.580850000000     0          
O        O      0.878500000000     0.816000000000     0.668950000000     0          
O        O      0.798100000000     0.847400000000     0.658400000000     0          
O        O      0.830950000000     0.807700000000     0.529300000000     0          
O        O      0.796650000000     0.772900000000     0.577450000000     0          
O        O      0.807200000000     0.868800000000     0.500000000000     0          
O        O      0.797850000000     0.000000000000     0.659250000000     0          
O        O      0.750000000000     0.892300000000     0.625750000000     0          
O        O      0.750000000000     0.963800000000     0.617850000000     0          
O        O      0.750000000000     0.821300000000     0.611250000000     0          
O        O      0.750000000000     0.750000000000     0.625000000000     0          
O        O      0.619150000000     0.111000000000     0.570200000000     0          
O        O      0.665750000000     0.071700000000     0.528950000000     0          
O        O      0.625350000000     0.036900000000     0.574500000000     0          
O        O      0.702150000000     0.079500000000     0.580850000000     0          
O        O      0.621500000000     0.184000000000     0.668950000000     0          
O        O      0.701900000000     0.152600000000     0.658400000000     0          
O        O      0.669050000000     0.192300000000     0.529300000000     0          
O        O      0.703350000000     0.227100000000     0.577450000000     0          
O        O      0.692800000000     0.131200000000     0.500000000000     0          
O        O      0.702150000000     0.000000000000     0.659250000000     0          
O        O      0.750000000000     0.107700000000     0.625750000000     0          
O        O      0.750000000000     0.036200000000     0.617850000000     0          
O        O      0.750000000000     0.178700000000     0.611250000000     0          
O        O      0.750000000000     0.250000000000     0.625000000000     0          
O        O      0.619150000000     0.889000000000     0.570200000000     0          
O        O      0.665750000000     0.928300000000     0.528950000000     0          
O        O      0.625350000000     0.963100000000     0.574500000000     0          
O        O      0.702150000000     0.920500000000     0.580850000000     0          
O        O      0.621500000000     0.816000000000     0.668950000000     0          
O        O      0.701900000000     0.847400000000     0.658400000000     0          
O        O      0.669050000000     0.807700000000     0.529300000000     0          
O        O      0.703350000000     0.772900000000     0.577450000000     0          
O        O      0.880850000000     0.111000000000     0.570200000000     0          
O        O      0.834250000000     0.071700000000     0.528950000000     0          
O        O      0.874650000000     0.036900000000     0.574500000000     0          
O        O      0.797850000000     0.079500000000     0.580850000000     0          
O        O      0.878500000000     0.184000000000     0.668950000000     0          
O        O      0.798100000000     0.152600000000     0.658400000000     0          
O        O      0.830950000000     0.192300000000     0.529300000000     0          
O        O      0.796650000000     0.227100000000     0.577450000000     0          
O        O      0.619150000000     0.111000000000     0.929800000000     0          
O        O      0.665750000000     0.071700000000     0.971050000000     0          
O        O      0.625350000000     0.036900000000     0.925500000000     0          
O        O      0.702150000000     0.079500000000     0.919150000000     0          
O        O      0.621500000000     0.184000000000     0.831050000000     0          
O        O      0.701900000000     0.152600000000     0.841600000000     0          
O        O      0.669050000000     0.192300000000     0.970700000000     0          
O        O      0.703350000000     0.227100000000     0.922550000000     0          
O        O      0.880850000000     0.889000000000     0.929800000000     0          
O        O      0.834250000000     0.928300000000     0.971050000000     0          
O        O      0.874650000000     0.963100000000     0.925500000000     0          
O        O      0.797850000000     0.920500000000     0.919150000000     0          
O        O      0.878500000000     0.816000000000     0.831050000000     0          
O        O      0.798100000000     0.847400000000     0.841600000000     0          
O        O      0.830950000000     0.807700000000     0.970700000000     0          
O        O      0.796650000000     0.772900000000     0.922550000000     0          
O        O      0.880850000000     0.611000000000     0.679800000000     0          
O        O      0.834250000000     0.571700000000     0.721050000000     0          
O        O      0.874650000000     0.536900000000     0.675500000000     0          
O        O      0.797850000000     0.579500000000     0.669150000000     0          
O        O      0.878500000000     0.684000000000     0.581050000000     0          
O        O      0.798100000000     0.652600000000     0.591600000000     0          
O        O      0.830950000000     0.692300000000     0.720700000000     0          
O        O      0.796650000000     0.727100000000     0.672550000000     0          
O        O      0.750000000000     0.689900000000     0.750000000000     0          
O        O      0.807200000000     0.631200000000     0.750000000000     0          
O        O      0.750000000000     0.927200000000     0.500000000000     0          
O        O      0.797850000000     0.500000000000     0.590750000000     0          
O        O      0.750000000000     0.607700000000     0.624250000000     0          
O        O      0.750000000000     0.536200000000     0.632150000000     0          
O        O      0.750000000000     0.678700000000     0.638750000000     0          
O        O      0.619150000000     0.389000000000     0.679800000000     0          
O        O      0.665750000000     0.428300000000     0.721050000000     0          
O        O      0.625350000000     0.463100000000     0.675500000000     0          
O        O      0.702150000000     0.420500000000     0.669150000000     0          
O        O      0.621500000000     0.316000000000     0.581050000000     0          
O        O      0.701900000000     0.347400000000     0.591600000000     0          
O        O      0.669050000000     0.307700000000     0.720700000000     0          
O        O      0.703350000000     0.272900000000     0.672550000000     0          
O        O      0.750000000000     0.310100000000     0.750000000000     0          
O        O      0.692800000000     0.368800000000     0.750000000000     0          
O        O      0.750000000000     0.072800000000     0.500000000000     0          
O        O      0.702150000000     0.500000000000     0.590750000000     0          
O        O      0.750000000000     0.392300000000     0.624250000000     0          
O        O      0.750000000000     0.463800000000     0.632150000000     0          
O        O      0.750000000000     0.321300000000     0.638750000000     0          
O        O      0.880850000000     0.389000000000     0.820200000000     0          
O        O      0.834250000000     0.428300000000     0.778950000000     0          
O        O      0.874650000000     0.463100000000     0.824500000000     0          
O        O      0.797850000000     0.420500000000     0.830850000000     0          
O        O      0.878500000000     0.316000000000     0.918950000000     0          
O        O      0.798100000000     0.347400000000     0.908400000000     0          
O        O      0.830950000000     0.307700000000     0.779300000000     0          
O        O      0.796650000000     0.272900000000     0.827450000000     0          
O        O      0.807200000000     0.368800000000     0.750000000000     0          
O        O      0.797850000000     0.500000000000     0.909250000000     0          
O        O      0.750000000000     0.392300000000     0.875750000000     0          
O        O      0.750000000000     0.463800000000     0.867850000000     0          
O        O      0.750000000000     0.321300000000     0.861250000000     0          
O        O      0.619150000000     0.611000000000     0.820200000000     0          
O        O      0.665750000000     0.571700000000     0.778950000000     0          
O        O      0.625350000000     0.536900000000     0.824500000000     0          
O        O      0.702150000000     0.579500000000     0.830850000000     0          
O        O      0.621500000000     0.684000000000     0.918950000000     0          
O        O      0.701900000000     0.652600000000     0.908400000000     0          
O        O      0.669050000000     0.692300000000     0.779300000000     0          
O        O      0.703350000000     0.727100000000     0.827450000000     0          
O        O      0.692800000000     0.631200000000     0.750000000000     0          
O        O      0.702150000000     0.500000000000     0.909250000000     0          
O        O      0.750000000000     0.607700000000     0.875750000000     0          
O        O      0.750000000000     0.536200000000     0.867850000000     0          
O        O      0.750000000000     0.678700000000     0.861250000000     0          
O        O      0.619150000000     0.389000000000     0.820200000000     0          
O        O      0.665750000000     0.428300000000     0.778950000000     0          
O        O      0.625350000000     0.463100000000     0.824500000000     0          
O        O      0.702150000000     0.420500000000     0.830850000000     0          
O        O      0.621500000000     0.316000000000     0.918950000000     0          
O        O      0.701900000000     0.347400000000     0.908400000000     0          
O        O      0.669050000000     0.307700000000     0.779300000000     0          
O        O      0.703350000000     0.272900000000     0.827450000000     0          
O        O      0.880850000000     0.611000000000     0.820200000000     0          
O        O      0.834250000000     0.571700000000     0.778950000000     0          
O        O      0.874650000000     0.536900000000     0.824500000000     0          
O        O      0.797850000000     0.579500000000     0.830850000000     0          
O        O      0.878500000000     0.684000000000     0.918950000000     0          
O        O      0.798100000000     0.652600000000     0.908400000000     0          
O        O      0.830950000000     0.692300000000     0.779300000000     0          
O        O      0.796650000000     0.727100000000     0.827450000000     0          
O        O      0.619150000000     0.611000000000     0.679800000000     0          
O        O      0.665750000000     0.571700000000     0.721050000000     0          
O        O      0.625350000000     0.536900000000     0.675500000000     0          
O        O      0.702150000000     0.579500000000     0.669150000000     0          
O        O      0.621500000000     0.684000000000     0.581050000000     0          
O        O      0.701900000000     0.652600000000     0.591600000000     0          
O        O      0.669050000000     0.692300000000     0.720700000000     0          
O        O      0.703350000000     0.727100000000     0.672550000000     0          
O        O      0.880850000000     0.389000000000     0.679800000000     0          
O        O      0.834250000000     0.428300000000     0.721050000000     0          
O        O      0.874650000000     0.463100000000     0.675500000000     0          
O        O      0.797850000000     0.420500000000     0.669150000000     0          
O        O      0.878500000000     0.316000000000     0.581050000000     0          
O        O      0.798100000000     0.347400000000     0.591600000000     0          
O        O      0.830950000000     0.307700000000     0.720700000000     0          
O        O      0.796650000000     0.272900000000     0.672550000000     0          


