data_zeolite

_audit_creation_method RASPA-1.0
_audit_creation_date 2021-6-7
_audit_author_name ''

_cell_length_a    9.877
_cell_length_b    14.075
_cell_length_c    28.131
_cell_angle_alpha 90
_cell_angle_beta  90
_cell_angle_gamma 90
_cell_volume      23464.4

_symmetry_cell_setting          orthorhombic
_symmetry_space_group_name_Hall 'P 1'
_symmetry_space_group_name_H-M  'P 1'
_symmetry_Int_Tables_number     1

_symmetry_equiv_pos_as_xyz 'x,y,z'

loop_
_atom_site_label
_atom_site_type_symbol
_atom_site_fract_x
_atom_site_fract_y
_atom_site_fract_z
_atom_site_charge
T        Si     0.052133333333     0.066150000000     0.366200000000     0          
T        Si     0.218700000000     0.002300000000     0.304700000000     0          
T        Si     0.281166666667     0.489200000000     0.445900000000     0          
T        Si     0.114466666667     0.425300000000     0.383900000000     0          
T        Si     0.281200000000     0.433850000000     0.866200000000     0          
T        Si     0.114633333333     0.497700000000     0.804700000000     0          
T        Si     0.052166666667     0.010800000000     0.945900000000     0          
T        Si     0.218866666667     0.074700000000     0.883900000000     0          
T        Si     0.052133333333     0.433850000000     0.633800000000     0          
T        Si     0.218700000000     0.497700000000     0.695300000000     0          
T        Si     0.281166666667     0.010800000000     0.554100000000     0          
T        Si     0.114466666667     0.074700000000     0.616100000000     0          
T        Si     0.281200000000     0.066150000000     0.133800000000     0          
T        Si     0.114633333333     0.002300000000     0.195300000000     0          
T        Si     0.052166666667     0.489200000000     0.054100000000     0          
T        Si     0.218866666667     0.425300000000     0.116100000000     0          
T        Si     0.281200000000     0.433850000000     0.633800000000     0          
T        Si     0.114633333333     0.497700000000     0.695300000000     0          
T        Si     0.052166666667     0.010800000000     0.554100000000     0          
T        Si     0.218866666667     0.074700000000     0.616100000000     0          
T        Si     0.052133333333     0.066150000000     0.133800000000     0          
T        Si     0.218700000000     0.002300000000     0.195300000000     0          
T        Si     0.281166666667     0.489200000000     0.054100000000     0          
T        Si     0.114466666667     0.425300000000     0.116100000000     0          
T        Si     0.281200000000     0.066150000000     0.366200000000     0          
T        Si     0.114633333333     0.002300000000     0.304700000000     0          
T        Si     0.052166666667     0.489200000000     0.445900000000     0          
T        Si     0.218866666667     0.425300000000     0.383900000000     0          
T        Si     0.052133333333     0.433850000000     0.866200000000     0          
T        Si     0.218700000000     0.497700000000     0.804700000000     0          
T        Si     0.281166666667     0.010800000000     0.945900000000     0          
T        Si     0.114466666667     0.074700000000     0.883900000000     0          
T        Si     0.218800000000     0.316150000000     0.366200000000     0          
T        Si     0.052033333333     0.252300000000     0.304700000000     0          
T        Si     0.114500000000     0.239200000000     0.445900000000     0          
T        Si     0.281133333333     0.175300000000     0.383900000000     0          
T        Si     0.114533333333     0.183850000000     0.866200000000     0          
T        Si     0.281300000000     0.247700000000     0.804700000000     0          
T        Si     0.218833333333     0.260800000000     0.945900000000     0          
T        Si     0.052200000000     0.324700000000     0.883900000000     0          
T        Si     0.218800000000     0.183850000000     0.633800000000     0          
T        Si     0.052033333333     0.247700000000     0.695300000000     0          
T        Si     0.114500000000     0.260800000000     0.554100000000     0          
T        Si     0.281133333333     0.324700000000     0.616100000000     0          
T        Si     0.114533333333     0.316150000000     0.133800000000     0          
T        Si     0.281300000000     0.252300000000     0.195300000000     0          
T        Si     0.218833333333     0.239200000000     0.054100000000     0          
T        Si     0.052200000000     0.175300000000     0.116100000000     0          
T        Si     0.114533333333     0.183850000000     0.633800000000     0          
T        Si     0.281300000000     0.247700000000     0.695300000000     0          
T        Si     0.218833333333     0.260800000000     0.554100000000     0          
T        Si     0.052200000000     0.324700000000     0.616100000000     0          
T        Si     0.218800000000     0.316150000000     0.133800000000     0          
T        Si     0.052033333333     0.252300000000     0.195300000000     0          
T        Si     0.114500000000     0.239200000000     0.054100000000     0          
T        Si     0.281133333333     0.175300000000     0.116100000000     0          
T        Si     0.114533333333     0.316150000000     0.366200000000     0          
T        Si     0.281300000000     0.252300000000     0.304700000000     0          
T        Si     0.218833333333     0.239200000000     0.445900000000     0          
T        Si     0.052200000000     0.175300000000     0.383900000000     0          
T        Si     0.218800000000     0.183850000000     0.866200000000     0          
T        Si     0.052033333333     0.247700000000     0.804700000000     0          
T        Si     0.114500000000     0.260800000000     0.945900000000     0          
T        Si     0.281133333333     0.324700000000     0.883900000000     0          
T        Si     0.052133333333     0.566150000000     0.366200000000     0          
T        Si     0.218700000000     0.502300000000     0.304700000000     0          
T        Si     0.281166666667     0.989200000000     0.445900000000     0          
T        Si     0.114466666667     0.925300000000     0.383900000000     0          
T        Si     0.281200000000     0.933850000000     0.866200000000     0          
T        Si     0.114633333333     0.997700000000     0.804700000000     0          
T        Si     0.052166666667     0.510800000000     0.945900000000     0          
T        Si     0.218866666667     0.574700000000     0.883900000000     0          
T        Si     0.052133333333     0.933850000000     0.633800000000     0          
T        Si     0.218700000000     0.997700000000     0.695300000000     0          
T        Si     0.281166666667     0.510800000000     0.554100000000     0          
T        Si     0.114466666667     0.574700000000     0.616100000000     0          
T        Si     0.281200000000     0.566150000000     0.133800000000     0          
T        Si     0.114633333333     0.502300000000     0.195300000000     0          
T        Si     0.052166666667     0.989200000000     0.054100000000     0          
T        Si     0.218866666667     0.925300000000     0.116100000000     0          
T        Si     0.281200000000     0.933850000000     0.633800000000     0          
T        Si     0.114633333333     0.997700000000     0.695300000000     0          
T        Si     0.052166666667     0.510800000000     0.554100000000     0          
T        Si     0.218866666667     0.574700000000     0.616100000000     0          
T        Si     0.052133333333     0.566150000000     0.133800000000     0          
T        Si     0.218700000000     0.502300000000     0.195300000000     0          
T        Si     0.281166666667     0.989200000000     0.054100000000     0          
T        Si     0.114466666667     0.925300000000     0.116100000000     0          
T        Si     0.281200000000     0.566150000000     0.366200000000     0          
T        Si     0.114633333333     0.502300000000     0.304700000000     0          
T        Si     0.052166666667     0.989200000000     0.445900000000     0          
T        Si     0.218866666667     0.925300000000     0.383900000000     0          
T        Si     0.052133333333     0.933850000000     0.866200000000     0          
T        Si     0.218700000000     0.997700000000     0.804700000000     0          
T        Si     0.281166666667     0.510800000000     0.945900000000     0          
T        Si     0.114466666667     0.574700000000     0.883900000000     0          
T        Si     0.218800000000     0.816150000000     0.366200000000     0          
T        Si     0.052033333333     0.752300000000     0.304700000000     0          
T        Si     0.114500000000     0.739200000000     0.445900000000     0          
T        Si     0.281133333333     0.675300000000     0.383900000000     0          
T        Si     0.114533333333     0.683850000000     0.866200000000     0          
T        Si     0.281300000000     0.747700000000     0.804700000000     0          
T        Si     0.218833333333     0.760800000000     0.945900000000     0          
T        Si     0.052200000000     0.824700000000     0.883900000000     0          
T        Si     0.218800000000     0.683850000000     0.633800000000     0          
T        Si     0.052033333333     0.747700000000     0.695300000000     0          
T        Si     0.114500000000     0.760800000000     0.554100000000     0          
T        Si     0.281133333333     0.824700000000     0.616100000000     0          
T        Si     0.114533333333     0.816150000000     0.133800000000     0          
T        Si     0.281300000000     0.752300000000     0.195300000000     0          
T        Si     0.218833333333     0.739200000000     0.054100000000     0          
T        Si     0.052200000000     0.675300000000     0.116100000000     0          
T        Si     0.114533333333     0.683850000000     0.633800000000     0          
T        Si     0.281300000000     0.747700000000     0.695300000000     0          
T        Si     0.218833333333     0.760800000000     0.554100000000     0          
T        Si     0.052200000000     0.824700000000     0.616100000000     0          
T        Si     0.218800000000     0.816150000000     0.133800000000     0          
T        Si     0.052033333333     0.752300000000     0.195300000000     0          
T        Si     0.114500000000     0.739200000000     0.054100000000     0          
T        Si     0.281133333333     0.675300000000     0.116100000000     0          
T        Si     0.114533333333     0.816150000000     0.366200000000     0          
T        Si     0.281300000000     0.752300000000     0.304700000000     0          
T        Si     0.218833333333     0.739200000000     0.445900000000     0          
T        Si     0.052200000000     0.675300000000     0.383900000000     0          
T        Si     0.218800000000     0.683850000000     0.866200000000     0          
T        Si     0.052033333333     0.747700000000     0.804700000000     0          
T        Si     0.114500000000     0.760800000000     0.945900000000     0          
T        Si     0.281133333333     0.824700000000     0.883900000000     0          
T        Si     0.385466666667     0.066150000000     0.366200000000     0          
T        Si     0.552033333333     0.002300000000     0.304700000000     0          
T        Si     0.614500000000     0.489200000000     0.445900000000     0          
T        Si     0.447800000000     0.425300000000     0.383900000000     0          
T        Si     0.614533333333     0.433850000000     0.866200000000     0          
T        Si     0.447966666667     0.497700000000     0.804700000000     0          
T        Si     0.385500000000     0.010800000000     0.945900000000     0          
T        Si     0.552200000000     0.074700000000     0.883900000000     0          
T        Si     0.385466666667     0.433850000000     0.633800000000     0          
T        Si     0.552033333333     0.497700000000     0.695300000000     0          
T        Si     0.614500000000     0.010800000000     0.554100000000     0          
T        Si     0.447800000000     0.074700000000     0.616100000000     0          
T        Si     0.614533333333     0.066150000000     0.133800000000     0          
T        Si     0.447966666667     0.002300000000     0.195300000000     0          
T        Si     0.385500000000     0.489200000000     0.054100000000     0          
T        Si     0.552200000000     0.425300000000     0.116100000000     0          
T        Si     0.614533333333     0.433850000000     0.633800000000     0          
T        Si     0.447966666667     0.497700000000     0.695300000000     0          
T        Si     0.385500000000     0.010800000000     0.554100000000     0          
T        Si     0.552200000000     0.074700000000     0.616100000000     0          
T        Si     0.385466666667     0.066150000000     0.133800000000     0          
T        Si     0.552033333333     0.002300000000     0.195300000000     0          
T        Si     0.614500000000     0.489200000000     0.054100000000     0          
T        Si     0.447800000000     0.425300000000     0.116100000000     0          
T        Si     0.614533333333     0.066150000000     0.366200000000     0          
T        Si     0.447966666667     0.002300000000     0.304700000000     0          
T        Si     0.385500000000     0.489200000000     0.445900000000     0          
T        Si     0.552200000000     0.425300000000     0.383900000000     0          
T        Si     0.385466666667     0.433850000000     0.866200000000     0          
T        Si     0.552033333333     0.497700000000     0.804700000000     0          
T        Si     0.614500000000     0.010800000000     0.945900000000     0          
T        Si     0.447800000000     0.074700000000     0.883900000000     0          
T        Si     0.552133333333     0.316150000000     0.366200000000     0          
T        Si     0.385366666667     0.252300000000     0.304700000000     0          
T        Si     0.447833333333     0.239200000000     0.445900000000     0          
T        Si     0.614466666667     0.175300000000     0.383900000000     0          
T        Si     0.447866666667     0.183850000000     0.866200000000     0          
T        Si     0.614633333333     0.247700000000     0.804700000000     0          
T        Si     0.552166666667     0.260800000000     0.945900000000     0          
T        Si     0.385533333333     0.324700000000     0.883900000000     0          
T        Si     0.552133333333     0.183850000000     0.633800000000     0          
T        Si     0.385366666667     0.247700000000     0.695300000000     0          
T        Si     0.447833333333     0.260800000000     0.554100000000     0          
T        Si     0.614466666667     0.324700000000     0.616100000000     0          
T        Si     0.447866666667     0.316150000000     0.133800000000     0          
T        Si     0.614633333333     0.252300000000     0.195300000000     0          
T        Si     0.552166666667     0.239200000000     0.054100000000     0          
T        Si     0.385533333333     0.175300000000     0.116100000000     0          
T        Si     0.447866666667     0.183850000000     0.633800000000     0          
T        Si     0.614633333333     0.247700000000     0.695300000000     0          
T        Si     0.552166666667     0.260800000000     0.554100000000     0          
T        Si     0.385533333333     0.324700000000     0.616100000000     0          
T        Si     0.552133333333     0.316150000000     0.133800000000     0          
T        Si     0.385366666667     0.252300000000     0.195300000000     0          
T        Si     0.447833333333     0.239200000000     0.054100000000     0          
T        Si     0.614466666667     0.175300000000     0.116100000000     0          
T        Si     0.447866666667     0.316150000000     0.366200000000     0          
T        Si     0.614633333333     0.252300000000     0.304700000000     0          
T        Si     0.552166666667     0.239200000000     0.445900000000     0          
T        Si     0.385533333333     0.175300000000     0.383900000000     0          
T        Si     0.552133333333     0.183850000000     0.866200000000     0          
T        Si     0.385366666667     0.247700000000     0.804700000000     0          
T        Si     0.447833333333     0.260800000000     0.945900000000     0          
T        Si     0.614466666667     0.324700000000     0.883900000000     0          
T        Si     0.385466666667     0.566150000000     0.366200000000     0          
T        Si     0.552033333333     0.502300000000     0.304700000000     0          
T        Si     0.614500000000     0.989200000000     0.445900000000     0          
T        Si     0.447800000000     0.925300000000     0.383900000000     0          
T        Si     0.614533333333     0.933850000000     0.866200000000     0          
T        Si     0.447966666667     0.997700000000     0.804700000000     0          
T        Si     0.385500000000     0.510800000000     0.945900000000     0          
T        Si     0.552200000000     0.574700000000     0.883900000000     0          
T        Si     0.385466666667     0.933850000000     0.633800000000     0          
T        Si     0.552033333333     0.997700000000     0.695300000000     0          
T        Si     0.614500000000     0.510800000000     0.554100000000     0          
T        Si     0.447800000000     0.574700000000     0.616100000000     0          
T        Si     0.614533333333     0.566150000000     0.133800000000     0          
T        Si     0.447966666667     0.502300000000     0.195300000000     0          
T        Si     0.385500000000     0.989200000000     0.054100000000     0          
T        Si     0.552200000000     0.925300000000     0.116100000000     0          
T        Si     0.614533333333     0.933850000000     0.633800000000     0          
T        Si     0.447966666667     0.997700000000     0.695300000000     0          
T        Si     0.385500000000     0.510800000000     0.554100000000     0          
T        Si     0.552200000000     0.574700000000     0.616100000000     0          
T        Si     0.385466666667     0.566150000000     0.133800000000     0          
T        Si     0.552033333333     0.502300000000     0.195300000000     0          
T        Si     0.614500000000     0.989200000000     0.054100000000     0          
T        Si     0.447800000000     0.925300000000     0.116100000000     0          
T        Si     0.614533333333     0.566150000000     0.366200000000     0          
T        Si     0.447966666667     0.502300000000     0.304700000000     0          
T        Si     0.385500000000     0.989200000000     0.445900000000     0          
T        Si     0.552200000000     0.925300000000     0.383900000000     0          
T        Si     0.385466666667     0.933850000000     0.866200000000     0          
T        Si     0.552033333333     0.997700000000     0.804700000000     0          
T        Si     0.614500000000     0.510800000000     0.945900000000     0          
T        Si     0.447800000000     0.574700000000     0.883900000000     0          
T        Si     0.552133333333     0.816150000000     0.366200000000     0          
T        Si     0.385366666667     0.752300000000     0.304700000000     0          
T        Si     0.447833333333     0.739200000000     0.445900000000     0          
T        Si     0.614466666667     0.675300000000     0.383900000000     0          
T        Si     0.447866666667     0.683850000000     0.866200000000     0          
T        Si     0.614633333333     0.747700000000     0.804700000000     0          
T        Si     0.552166666667     0.760800000000     0.945900000000     0          
T        Si     0.385533333333     0.824700000000     0.883900000000     0          
T        Si     0.552133333333     0.683850000000     0.633800000000     0          
T        Si     0.385366666667     0.747700000000     0.695300000000     0          
T        Si     0.447833333333     0.760800000000     0.554100000000     0          
T        Si     0.614466666667     0.824700000000     0.616100000000     0          
T        Si     0.447866666667     0.816150000000     0.133800000000     0          
T        Si     0.614633333333     0.752300000000     0.195300000000     0          
T        Si     0.552166666667     0.739200000000     0.054100000000     0          
T        Si     0.385533333333     0.675300000000     0.116100000000     0          
T        Si     0.447866666667     0.683850000000     0.633800000000     0          
T        Si     0.614633333333     0.747700000000     0.695300000000     0          
T        Si     0.552166666667     0.760800000000     0.554100000000     0          
T        Si     0.385533333333     0.824700000000     0.616100000000     0          
T        Si     0.552133333333     0.816150000000     0.133800000000     0          
T        Si     0.385366666667     0.752300000000     0.195300000000     0          
T        Si     0.447833333333     0.739200000000     0.054100000000     0          
T        Si     0.614466666667     0.675300000000     0.116100000000     0          
T        Si     0.447866666667     0.816150000000     0.366200000000     0          
T        Si     0.614633333333     0.752300000000     0.304700000000     0          
T        Si     0.552166666667     0.739200000000     0.445900000000     0          
T        Si     0.385533333333     0.675300000000     0.383900000000     0          
T        Si     0.552133333333     0.683850000000     0.866200000000     0          
T        Si     0.385366666667     0.747700000000     0.804700000000     0          
T        Si     0.447833333333     0.760800000000     0.945900000000     0          
T        Si     0.614466666667     0.824700000000     0.883900000000     0          
T        Si     0.718800000000     0.066150000000     0.366200000000     0          
T        Si     0.885366666667     0.002300000000     0.304700000000     0          
T        Si     0.947833333333     0.489200000000     0.445900000000     0          
T        Si     0.781133333333     0.425300000000     0.383900000000     0          
T        Si     0.947866666667     0.433850000000     0.866200000000     0          
T        Si     0.781300000000     0.497700000000     0.804700000000     0          
T        Si     0.718833333333     0.010800000000     0.945900000000     0          
T        Si     0.885533333333     0.074700000000     0.883900000000     0          
T        Si     0.718800000000     0.433850000000     0.633800000000     0          
T        Si     0.885366666667     0.497700000000     0.695300000000     0          
T        Si     0.947833333333     0.010800000000     0.554100000000     0          
T        Si     0.781133333333     0.074700000000     0.616100000000     0          
T        Si     0.947866666667     0.066150000000     0.133800000000     0          
T        Si     0.781300000000     0.002300000000     0.195300000000     0          
T        Si     0.718833333333     0.489200000000     0.054100000000     0          
T        Si     0.885533333333     0.425300000000     0.116100000000     0          
T        Si     0.947866666667     0.433850000000     0.633800000000     0          
T        Si     0.781300000000     0.497700000000     0.695300000000     0          
T        Si     0.718833333333     0.010800000000     0.554100000000     0          
T        Si     0.885533333333     0.074700000000     0.616100000000     0          
T        Si     0.718800000000     0.066150000000     0.133800000000     0          
T        Si     0.885366666667     0.002300000000     0.195300000000     0          
T        Si     0.947833333333     0.489200000000     0.054100000000     0          
T        Si     0.781133333333     0.425300000000     0.116100000000     0          
T        Si     0.947866666667     0.066150000000     0.366200000000     0          
T        Si     0.781300000000     0.002300000000     0.304700000000     0          
T        Si     0.718833333333     0.489200000000     0.445900000000     0          
T        Si     0.885533333333     0.425300000000     0.383900000000     0          
T        Si     0.718800000000     0.433850000000     0.866200000000     0          
T        Si     0.885366666667     0.497700000000     0.804700000000     0          
T        Si     0.947833333333     0.010800000000     0.945900000000     0          
T        Si     0.781133333333     0.074700000000     0.883900000000     0          
T        Si     0.885466666667     0.316150000000     0.366200000000     0          
T        Si     0.718700000000     0.252300000000     0.304700000000     0          
T        Si     0.781166666667     0.239200000000     0.445900000000     0          
T        Si     0.947800000000     0.175300000000     0.383900000000     0          
T        Si     0.781200000000     0.183850000000     0.866200000000     0          
T        Si     0.947966666667     0.247700000000     0.804700000000     0          
T        Si     0.885500000000     0.260800000000     0.945900000000     0          
T        Si     0.718866666667     0.324700000000     0.883900000000     0          
T        Si     0.885466666667     0.183850000000     0.633800000000     0          
T        Si     0.718700000000     0.247700000000     0.695300000000     0          
T        Si     0.781166666667     0.260800000000     0.554100000000     0          
T        Si     0.947800000000     0.324700000000     0.616100000000     0          
T        Si     0.781200000000     0.316150000000     0.133800000000     0          
T        Si     0.947966666667     0.252300000000     0.195300000000     0          
T        Si     0.885500000000     0.239200000000     0.054100000000     0          
T        Si     0.718866666667     0.175300000000     0.116100000000     0          
T        Si     0.781200000000     0.183850000000     0.633800000000     0          
T        Si     0.947966666667     0.247700000000     0.695300000000     0          
T        Si     0.885500000000     0.260800000000     0.554100000000     0          
T        Si     0.718866666667     0.324700000000     0.616100000000     0          
T        Si     0.885466666667     0.316150000000     0.133800000000     0          
T        Si     0.718700000000     0.252300000000     0.195300000000     0          
T        Si     0.781166666667     0.239200000000     0.054100000000     0          
T        Si     0.947800000000     0.175300000000     0.116100000000     0          
T        Si     0.781200000000     0.316150000000     0.366200000000     0          
T        Si     0.947966666667     0.252300000000     0.304700000000     0          
T        Si     0.885500000000     0.239200000000     0.445900000000     0          
T        Si     0.718866666667     0.175300000000     0.383900000000     0          
T        Si     0.885466666667     0.183850000000     0.866200000000     0          
T        Si     0.718700000000     0.247700000000     0.804700000000     0          
T        Si     0.781166666667     0.260800000000     0.945900000000     0          
T        Si     0.947800000000     0.324700000000     0.883900000000     0          
T        Si     0.718800000000     0.566150000000     0.366200000000     0          
T        Si     0.885366666667     0.502300000000     0.304700000000     0          
T        Si     0.947833333333     0.989200000000     0.445900000000     0          
T        Si     0.781133333333     0.925300000000     0.383900000000     0          
T        Si     0.947866666667     0.933850000000     0.866200000000     0          
T        Si     0.781300000000     0.997700000000     0.804700000000     0          
T        Si     0.718833333333     0.510800000000     0.945900000000     0          
T        Si     0.885533333333     0.574700000000     0.883900000000     0          
T        Si     0.718800000000     0.933850000000     0.633800000000     0          
T        Si     0.885366666667     0.997700000000     0.695300000000     0          
T        Si     0.947833333333     0.510800000000     0.554100000000     0          
T        Si     0.781133333333     0.574700000000     0.616100000000     0          
T        Si     0.947866666667     0.566150000000     0.133800000000     0          
T        Si     0.781300000000     0.502300000000     0.195300000000     0          
T        Si     0.718833333333     0.989200000000     0.054100000000     0          
T        Si     0.885533333333     0.925300000000     0.116100000000     0          
T        Si     0.947866666667     0.933850000000     0.633800000000     0          
T        Si     0.781300000000     0.997700000000     0.695300000000     0          
T        Si     0.718833333333     0.510800000000     0.554100000000     0          
T        Si     0.885533333333     0.574700000000     0.616100000000     0          
T        Si     0.718800000000     0.566150000000     0.133800000000     0          
T        Si     0.885366666667     0.502300000000     0.195300000000     0          
T        Si     0.947833333333     0.989200000000     0.054100000000     0          
T        Si     0.781133333333     0.925300000000     0.116100000000     0          
T        Si     0.947866666667     0.566150000000     0.366200000000     0          
T        Si     0.781300000000     0.502300000000     0.304700000000     0          
T        Si     0.718833333333     0.989200000000     0.445900000000     0          
T        Si     0.885533333333     0.925300000000     0.383900000000     0          
T        Si     0.718800000000     0.933850000000     0.866200000000     0          
T        Si     0.885366666667     0.997700000000     0.804700000000     0          
T        Si     0.947833333333     0.510800000000     0.945900000000     0          
T        Si     0.781133333333     0.574700000000     0.883900000000     0          
T        Si     0.885466666667     0.816150000000     0.366200000000     0          
T        Si     0.718700000000     0.752300000000     0.304700000000     0          
T        Si     0.781166666667     0.739200000000     0.445900000000     0          
T        Si     0.947800000000     0.675300000000     0.383900000000     0          
T        Si     0.781200000000     0.683850000000     0.866200000000     0          
T        Si     0.947966666667     0.747700000000     0.804700000000     0          
T        Si     0.885500000000     0.760800000000     0.945900000000     0          
T        Si     0.718866666667     0.824700000000     0.883900000000     0          
T        Si     0.885466666667     0.683850000000     0.633800000000     0          
T        Si     0.718700000000     0.747700000000     0.695300000000     0          
T        Si     0.781166666667     0.760800000000     0.554100000000     0          
T        Si     0.947800000000     0.824700000000     0.616100000000     0          
T        Si     0.781200000000     0.816150000000     0.133800000000     0          
T        Si     0.947966666667     0.752300000000     0.195300000000     0          
T        Si     0.885500000000     0.739200000000     0.054100000000     0          
T        Si     0.718866666667     0.675300000000     0.116100000000     0          
T        Si     0.781200000000     0.683850000000     0.633800000000     0          
T        Si     0.947966666667     0.747700000000     0.695300000000     0          
T        Si     0.885500000000     0.760800000000     0.554100000000     0          
T        Si     0.718866666667     0.824700000000     0.616100000000     0          
T        Si     0.885466666667     0.816150000000     0.133800000000     0          
T        Si     0.718700000000     0.752300000000     0.195300000000     0          
T        Si     0.781166666667     0.739200000000     0.054100000000     0          
T        Si     0.947800000000     0.675300000000     0.116100000000     0          
T        Si     0.781200000000     0.816150000000     0.366200000000     0          
T        Si     0.947966666667     0.752300000000     0.304700000000     0          
T        Si     0.885500000000     0.739200000000     0.445900000000     0          
T        Si     0.718866666667     0.675300000000     0.383900000000     0          
T        Si     0.885466666667     0.683850000000     0.866200000000     0          
T        Si     0.718700000000     0.747700000000     0.804700000000     0          
T        Si     0.781166666667     0.760800000000     0.945900000000     0          
T        Si     0.947800000000     0.824700000000     0.883900000000     0          
O        O      0.059333333333     0.036300000000     0.414400000000     0          
O        O      0.066066666667     0.120700000000     0.375200000000     0          
O        O      0.000000000000     0.063550000000     0.350300000000     0          
O        O      0.083066666667     0.044350000000     0.324600000000     0          
O        O      0.226600000000     0.454900000000     0.335600000000     0          
O        O      0.231233333333     0.491850000000     0.250000000000     0          
O        O      0.166666666667     0.018250000000     0.308400000000     0          
O        O      0.000000000000     0.473300000000     0.444100000000     0          
O        O      0.250066666667     0.447050000000     0.425400000000     0          
O        O      0.266766666667     0.000000000000     0.500000000000     0          
O        O      0.166666666667     0.428350000000     0.399400000000     0          
O        O      0.274000000000     0.463700000000     0.914400000000     0          
O        O      0.267266666667     0.379300000000     0.875200000000     0          
O        O      0.000000000000     0.436450000000     0.850300000000     0          
O        O      0.250266666667     0.455650000000     0.824600000000     0          
O        O      0.106733333333     0.045100000000     0.835600000000     0          
O        O      0.102100000000     0.008150000000     0.750000000000     0          
O        O      0.166666666667     0.481750000000     0.808400000000     0          
O        O      0.000000000000     0.026700000000     0.944100000000     0          
O        O      0.083266666667     0.052950000000     0.925400000000     0          
O        O      0.066566666667     0.000000000000     0.000000000000     0          
O        O      0.166666666667     0.071650000000     0.899400000000     0          
O        O      0.059333333333     0.463700000000     0.585600000000     0          
O        O      0.066066666667     0.379300000000     0.624800000000     0          
O        O      0.000000000000     0.436450000000     0.649700000000     0          
O        O      0.083066666667     0.455650000000     0.675400000000     0          
O        O      0.226600000000     0.045100000000     0.664400000000     0          
O        O      0.231233333333     0.008150000000     0.750000000000     0          
O        O      0.166666666667     0.481750000000     0.691600000000     0          
O        O      0.000000000000     0.026700000000     0.555900000000     0          
O        O      0.250066666667     0.052950000000     0.574600000000     0          
O        O      0.166666666667     0.071650000000     0.600600000000     0          
O        O      0.274000000000     0.036300000000     0.085600000000     0          
O        O      0.267266666667     0.120700000000     0.124800000000     0          
O        O      0.000000000000     0.063550000000     0.149700000000     0          
O        O      0.250266666667     0.044350000000     0.175400000000     0          
O        O      0.106733333333     0.454900000000     0.164400000000     0          
O        O      0.102100000000     0.491850000000     0.250000000000     0          
O        O      0.166666666667     0.018250000000     0.191600000000     0          
O        O      0.000000000000     0.473300000000     0.055900000000     0          
O        O      0.083266666667     0.447050000000     0.074600000000     0          
O        O      0.166666666667     0.428350000000     0.100600000000     0          
O        O      0.274000000000     0.463700000000     0.585600000000     0          
O        O      0.267266666667     0.379300000000     0.624800000000     0          
O        O      0.250266666667     0.455650000000     0.675400000000     0          
O        O      0.106733333333     0.045100000000     0.664400000000     0          
O        O      0.083266666667     0.052950000000     0.574600000000     0          
O        O      0.066566666667     0.000000000000     0.500000000000     0          
O        O      0.059333333333     0.036300000000     0.085600000000     0          
O        O      0.066066666667     0.120700000000     0.124800000000     0          
O        O      0.083066666667     0.044350000000     0.175400000000     0          
O        O      0.226600000000     0.454900000000     0.164400000000     0          
O        O      0.250066666667     0.447050000000     0.074600000000     0          
O        O      0.266766666667     0.000000000000     0.000000000000     0          
O        O      0.274000000000     0.036300000000     0.414400000000     0          
O        O      0.267266666667     0.120700000000     0.375200000000     0          
O        O      0.250266666667     0.044350000000     0.324600000000     0          
O        O      0.106733333333     0.454900000000     0.335600000000     0          
O        O      0.083266666667     0.447050000000     0.425400000000     0          
O        O      0.059333333333     0.463700000000     0.914400000000     0          
O        O      0.066066666667     0.379300000000     0.875200000000     0          
O        O      0.083066666667     0.455650000000     0.824600000000     0          
O        O      0.226600000000     0.045100000000     0.835600000000     0          
O        O      0.250066666667     0.052950000000     0.925400000000     0          
O        O      0.226000000000     0.286300000000     0.414400000000     0          
O        O      0.232733333333     0.370700000000     0.375200000000     0          
O        O      0.166666666667     0.313550000000     0.350300000000     0          
O        O      0.249733333333     0.294350000000     0.324600000000     0          
O        O      0.059933333333     0.204900000000     0.335600000000     0          
O        O      0.064566666667     0.241850000000     0.250000000000     0          
O        O      0.000000000000     0.268250000000     0.308400000000     0          
O        O      0.166666666667     0.223300000000     0.444100000000     0          
O        O      0.083400000000     0.197050000000     0.425400000000     0          
O        O      0.100100000000     0.250000000000     0.500000000000     0          
O        O      0.000000000000     0.178350000000     0.399400000000     0          
O        O      0.107333333333     0.213700000000     0.914400000000     0          
O        O      0.100600000000     0.129300000000     0.875200000000     0          
O        O      0.166666666667     0.186450000000     0.850300000000     0          
O        O      0.083600000000     0.205650000000     0.824600000000     0          
O        O      0.273400000000     0.295100000000     0.835600000000     0          
O        O      0.268766666667     0.258150000000     0.750000000000     0          
O        O      0.000000000000     0.231750000000     0.808400000000     0          
O        O      0.166666666667     0.276700000000     0.944100000000     0          
O        O      0.249933333333     0.302950000000     0.925400000000     0          
O        O      0.233233333333     0.250000000000     0.000000000000     0          
O        O      0.000000000000     0.321650000000     0.899400000000     0          
O        O      0.226000000000     0.213700000000     0.585600000000     0          
O        O      0.232733333333     0.129300000000     0.624800000000     0          
O        O      0.166666666667     0.186450000000     0.649700000000     0          
O        O      0.249733333333     0.205650000000     0.675400000000     0          
O        O      0.059933333333     0.295100000000     0.664400000000     0          
O        O      0.064566666667     0.258150000000     0.750000000000     0          
O        O      0.000000000000     0.231750000000     0.691600000000     0          
O        O      0.166666666667     0.276700000000     0.555900000000     0          
O        O      0.083400000000     0.302950000000     0.574600000000     0          
O        O      0.000000000000     0.321650000000     0.600600000000     0          
O        O      0.107333333333     0.286300000000     0.085600000000     0          
O        O      0.100600000000     0.370700000000     0.124800000000     0          
O        O      0.166666666667     0.313550000000     0.149700000000     0          
O        O      0.083600000000     0.294350000000     0.175400000000     0          
O        O      0.273400000000     0.204900000000     0.164400000000     0          
O        O      0.268766666667     0.241850000000     0.250000000000     0          
O        O      0.000000000000     0.268250000000     0.191600000000     0          
O        O      0.166666666667     0.223300000000     0.055900000000     0          
O        O      0.249933333333     0.197050000000     0.074600000000     0          
O        O      0.000000000000     0.178350000000     0.100600000000     0          
O        O      0.107333333333     0.213700000000     0.585600000000     0          
O        O      0.100600000000     0.129300000000     0.624800000000     0          
O        O      0.083600000000     0.205650000000     0.675400000000     0          
O        O      0.273400000000     0.295100000000     0.664400000000     0          
O        O      0.249933333333     0.302950000000     0.574600000000     0          
O        O      0.233233333333     0.250000000000     0.500000000000     0          
O        O      0.226000000000     0.286300000000     0.085600000000     0          
O        O      0.232733333333     0.370700000000     0.124800000000     0          
O        O      0.249733333333     0.294350000000     0.175400000000     0          
O        O      0.059933333333     0.204900000000     0.164400000000     0          
O        O      0.083400000000     0.197050000000     0.074600000000     0          
O        O      0.100100000000     0.250000000000     0.000000000000     0          
O        O      0.107333333333     0.286300000000     0.414400000000     0          
O        O      0.100600000000     0.370700000000     0.375200000000     0          
O        O      0.083600000000     0.294350000000     0.324600000000     0          
O        O      0.273400000000     0.204900000000     0.335600000000     0          
O        O      0.249933333333     0.197050000000     0.425400000000     0          
O        O      0.226000000000     0.213700000000     0.914400000000     0          
O        O      0.232733333333     0.129300000000     0.875200000000     0          
O        O      0.249733333333     0.205650000000     0.824600000000     0          
O        O      0.059933333333     0.295100000000     0.835600000000     0          
O        O      0.083400000000     0.302950000000     0.925400000000     0          
O        O      0.059333333333     0.536300000000     0.414400000000     0          
O        O      0.066066666667     0.620700000000     0.375200000000     0          
O        O      0.000000000000     0.563550000000     0.350300000000     0          
O        O      0.083066666667     0.544350000000     0.324600000000     0          
O        O      0.226600000000     0.954900000000     0.335600000000     0          
O        O      0.231233333333     0.991850000000     0.250000000000     0          
O        O      0.166666666667     0.518250000000     0.308400000000     0          
O        O      0.000000000000     0.973300000000     0.444100000000     0          
O        O      0.250066666667     0.947050000000     0.425400000000     0          
O        O      0.266766666667     0.500000000000     0.500000000000     0          
O        O      0.166666666667     0.928350000000     0.399400000000     0          
O        O      0.274000000000     0.963700000000     0.914400000000     0          
O        O      0.267266666667     0.879300000000     0.875200000000     0          
O        O      0.000000000000     0.936450000000     0.850300000000     0          
O        O      0.250266666667     0.955650000000     0.824600000000     0          
O        O      0.106733333333     0.545100000000     0.835600000000     0          
O        O      0.102100000000     0.508150000000     0.750000000000     0          
O        O      0.166666666667     0.981750000000     0.808400000000     0          
O        O      0.000000000000     0.526700000000     0.944100000000     0          
O        O      0.083266666667     0.552950000000     0.925400000000     0          
O        O      0.066566666667     0.500000000000     0.000000000000     0          
O        O      0.166666666667     0.571650000000     0.899400000000     0          
O        O      0.059333333333     0.963700000000     0.585600000000     0          
O        O      0.066066666667     0.879300000000     0.624800000000     0          
O        O      0.000000000000     0.936450000000     0.649700000000     0          
O        O      0.083066666667     0.955650000000     0.675400000000     0          
O        O      0.226600000000     0.545100000000     0.664400000000     0          
O        O      0.231233333333     0.508150000000     0.750000000000     0          
O        O      0.166666666667     0.981750000000     0.691600000000     0          
O        O      0.000000000000     0.526700000000     0.555900000000     0          
O        O      0.250066666667     0.552950000000     0.574600000000     0          
O        O      0.166666666667     0.571650000000     0.600600000000     0          
O        O      0.274000000000     0.536300000000     0.085600000000     0          
O        O      0.267266666667     0.620700000000     0.124800000000     0          
O        O      0.000000000000     0.563550000000     0.149700000000     0          
O        O      0.250266666667     0.544350000000     0.175400000000     0          
O        O      0.106733333333     0.954900000000     0.164400000000     0          
O        O      0.102100000000     0.991850000000     0.250000000000     0          
O        O      0.166666666667     0.518250000000     0.191600000000     0          
O        O      0.000000000000     0.973300000000     0.055900000000     0          
O        O      0.083266666667     0.947050000000     0.074600000000     0          
O        O      0.166666666667     0.928350000000     0.100600000000     0          
O        O      0.274000000000     0.963700000000     0.585600000000     0          
O        O      0.267266666667     0.879300000000     0.624800000000     0          
O        O      0.250266666667     0.955650000000     0.675400000000     0          
O        O      0.106733333333     0.545100000000     0.664400000000     0          
O        O      0.083266666667     0.552950000000     0.574600000000     0          
O        O      0.066566666667     0.500000000000     0.500000000000     0          
O        O      0.059333333333     0.536300000000     0.085600000000     0          
O        O      0.066066666667     0.620700000000     0.124800000000     0          
O        O      0.083066666667     0.544350000000     0.175400000000     0          
O        O      0.226600000000     0.954900000000     0.164400000000     0          
O        O      0.250066666667     0.947050000000     0.074600000000     0          
O        O      0.266766666667     0.500000000000     0.000000000000     0          
O        O      0.274000000000     0.536300000000     0.414400000000     0          
O        O      0.267266666667     0.620700000000     0.375200000000     0          
O        O      0.250266666667     0.544350000000     0.324600000000     0          
O        O      0.106733333333     0.954900000000     0.335600000000     0          
O        O      0.083266666667     0.947050000000     0.425400000000     0          
O        O      0.059333333333     0.963700000000     0.914400000000     0          
O        O      0.066066666667     0.879300000000     0.875200000000     0          
O        O      0.083066666667     0.955650000000     0.824600000000     0          
O        O      0.226600000000     0.545100000000     0.835600000000     0          
O        O      0.250066666667     0.552950000000     0.925400000000     0          
O        O      0.226000000000     0.786300000000     0.414400000000     0          
O        O      0.232733333333     0.870700000000     0.375200000000     0          
O        O      0.166666666667     0.813550000000     0.350300000000     0          
O        O      0.249733333333     0.794350000000     0.324600000000     0          
O        O      0.059933333333     0.704900000000     0.335600000000     0          
O        O      0.064566666667     0.741850000000     0.250000000000     0          
O        O      0.000000000000     0.768250000000     0.308400000000     0          
O        O      0.166666666667     0.723300000000     0.444100000000     0          
O        O      0.083400000000     0.697050000000     0.425400000000     0          
O        O      0.100100000000     0.750000000000     0.500000000000     0          
O        O      0.000000000000     0.678350000000     0.399400000000     0          
O        O      0.107333333333     0.713700000000     0.914400000000     0          
O        O      0.100600000000     0.629300000000     0.875200000000     0          
O        O      0.166666666667     0.686450000000     0.850300000000     0          
O        O      0.083600000000     0.705650000000     0.824600000000     0          
O        O      0.273400000000     0.795100000000     0.835600000000     0          
O        O      0.268766666667     0.758150000000     0.750000000000     0          
O        O      0.000000000000     0.731750000000     0.808400000000     0          
O        O      0.166666666667     0.776700000000     0.944100000000     0          
O        O      0.249933333333     0.802950000000     0.925400000000     0          
O        O      0.233233333333     0.750000000000     0.000000000000     0          
O        O      0.000000000000     0.821650000000     0.899400000000     0          
O        O      0.226000000000     0.713700000000     0.585600000000     0          
O        O      0.232733333333     0.629300000000     0.624800000000     0          
O        O      0.166666666667     0.686450000000     0.649700000000     0          
O        O      0.249733333333     0.705650000000     0.675400000000     0          
O        O      0.059933333333     0.795100000000     0.664400000000     0          
O        O      0.064566666667     0.758150000000     0.750000000000     0          
O        O      0.000000000000     0.731750000000     0.691600000000     0          
O        O      0.166666666667     0.776700000000     0.555900000000     0          
O        O      0.083400000000     0.802950000000     0.574600000000     0          
O        O      0.000000000000     0.821650000000     0.600600000000     0          
O        O      0.107333333333     0.786300000000     0.085600000000     0          
O        O      0.100600000000     0.870700000000     0.124800000000     0          
O        O      0.166666666667     0.813550000000     0.149700000000     0          
O        O      0.083600000000     0.794350000000     0.175400000000     0          
O        O      0.273400000000     0.704900000000     0.164400000000     0          
O        O      0.268766666667     0.741850000000     0.250000000000     0          
O        O      0.000000000000     0.768250000000     0.191600000000     0          
O        O      0.166666666667     0.723300000000     0.055900000000     0          
O        O      0.249933333333     0.697050000000     0.074600000000     0          
O        O      0.000000000000     0.678350000000     0.100600000000     0          
O        O      0.107333333333     0.713700000000     0.585600000000     0          
O        O      0.100600000000     0.629300000000     0.624800000000     0          
O        O      0.083600000000     0.705650000000     0.675400000000     0          
O        O      0.273400000000     0.795100000000     0.664400000000     0          
O        O      0.249933333333     0.802950000000     0.574600000000     0          
O        O      0.233233333333     0.750000000000     0.500000000000     0          
O        O      0.226000000000     0.786300000000     0.085600000000     0          
O        O      0.232733333333     0.870700000000     0.124800000000     0          
O        O      0.249733333333     0.794350000000     0.175400000000     0          
O        O      0.059933333333     0.704900000000     0.164400000000     0          
O        O      0.083400000000     0.697050000000     0.074600000000     0          
O        O      0.100100000000     0.750000000000     0.000000000000     0          
O        O      0.107333333333     0.786300000000     0.414400000000     0          
O        O      0.100600000000     0.870700000000     0.375200000000     0          
O        O      0.083600000000     0.794350000000     0.324600000000     0          
O        O      0.273400000000     0.704900000000     0.335600000000     0          
O        O      0.249933333333     0.697050000000     0.425400000000     0          
O        O      0.226000000000     0.713700000000     0.914400000000     0          
O        O      0.232733333333     0.629300000000     0.875200000000     0          
O        O      0.249733333333     0.705650000000     0.824600000000     0          
O        O      0.059933333333     0.795100000000     0.835600000000     0          
O        O      0.083400000000     0.802950000000     0.925400000000     0          
O        O      0.392666666667     0.036300000000     0.414400000000     0          
O        O      0.399400000000     0.120700000000     0.375200000000     0          
O        O      0.333333333333     0.063550000000     0.350300000000     0          
O        O      0.416400000000     0.044350000000     0.324600000000     0          
O        O      0.559933333333     0.454900000000     0.335600000000     0          
O        O      0.564566666667     0.491850000000     0.250000000000     0          
O        O      0.500000000000     0.018250000000     0.308400000000     0          
O        O      0.333333333333     0.473300000000     0.444100000000     0          
O        O      0.583400000000     0.447050000000     0.425400000000     0          
O        O      0.600100000000     0.000000000000     0.500000000000     0          
O        O      0.500000000000     0.428350000000     0.399400000000     0          
O        O      0.607333333333     0.463700000000     0.914400000000     0          
O        O      0.600600000000     0.379300000000     0.875200000000     0          
O        O      0.333333333333     0.436450000000     0.850300000000     0          
O        O      0.583600000000     0.455650000000     0.824600000000     0          
O        O      0.440066666667     0.045100000000     0.835600000000     0          
O        O      0.435433333333     0.008150000000     0.750000000000     0          
O        O      0.500000000000     0.481750000000     0.808400000000     0          
O        O      0.333333333333     0.026700000000     0.944100000000     0          
O        O      0.416600000000     0.052950000000     0.925400000000     0          
O        O      0.399900000000     0.000000000000     0.000000000000     0          
O        O      0.500000000000     0.071650000000     0.899400000000     0          
O        O      0.392666666667     0.463700000000     0.585600000000     0          
O        O      0.399400000000     0.379300000000     0.624800000000     0          
O        O      0.333333333333     0.436450000000     0.649700000000     0          
O        O      0.416400000000     0.455650000000     0.675400000000     0          
O        O      0.559933333333     0.045100000000     0.664400000000     0          
O        O      0.564566666667     0.008150000000     0.750000000000     0          
O        O      0.500000000000     0.481750000000     0.691600000000     0          
O        O      0.333333333333     0.026700000000     0.555900000000     0          
O        O      0.583400000000     0.052950000000     0.574600000000     0          
O        O      0.500000000000     0.071650000000     0.600600000000     0          
O        O      0.607333333333     0.036300000000     0.085600000000     0          
O        O      0.600600000000     0.120700000000     0.124800000000     0          
O        O      0.333333333333     0.063550000000     0.149700000000     0          
O        O      0.583600000000     0.044350000000     0.175400000000     0          
O        O      0.440066666667     0.454900000000     0.164400000000     0          
O        O      0.435433333333     0.491850000000     0.250000000000     0          
O        O      0.500000000000     0.018250000000     0.191600000000     0          
O        O      0.333333333333     0.473300000000     0.055900000000     0          
O        O      0.416600000000     0.447050000000     0.074600000000     0          
O        O      0.500000000000     0.428350000000     0.100600000000     0          
O        O      0.607333333333     0.463700000000     0.585600000000     0          
O        O      0.600600000000     0.379300000000     0.624800000000     0          
O        O      0.583600000000     0.455650000000     0.675400000000     0          
O        O      0.440066666667     0.045100000000     0.664400000000     0          
O        O      0.416600000000     0.052950000000     0.574600000000     0          
O        O      0.399900000000     0.000000000000     0.500000000000     0          
O        O      0.392666666667     0.036300000000     0.085600000000     0          
O        O      0.399400000000     0.120700000000     0.124800000000     0          
O        O      0.416400000000     0.044350000000     0.175400000000     0          
O        O      0.559933333333     0.454900000000     0.164400000000     0          
O        O      0.583400000000     0.447050000000     0.074600000000     0          
O        O      0.600100000000     0.000000000000     0.000000000000     0          
O        O      0.607333333333     0.036300000000     0.414400000000     0          
O        O      0.600600000000     0.120700000000     0.375200000000     0          
O        O      0.583600000000     0.044350000000     0.324600000000     0          
O        O      0.440066666667     0.454900000000     0.335600000000     0          
O        O      0.416600000000     0.447050000000     0.425400000000     0          
O        O      0.392666666667     0.463700000000     0.914400000000     0          
O        O      0.399400000000     0.379300000000     0.875200000000     0          
O        O      0.416400000000     0.455650000000     0.824600000000     0          
O        O      0.559933333333     0.045100000000     0.835600000000     0          
O        O      0.583400000000     0.052950000000     0.925400000000     0          
O        O      0.559333333333     0.286300000000     0.414400000000     0          
O        O      0.566066666667     0.370700000000     0.375200000000     0          
O        O      0.500000000000     0.313550000000     0.350300000000     0          
O        O      0.583066666667     0.294350000000     0.324600000000     0          
O        O      0.393266666667     0.204900000000     0.335600000000     0          
O        O      0.397900000000     0.241850000000     0.250000000000     0          
O        O      0.333333333333     0.268250000000     0.308400000000     0          
O        O      0.500000000000     0.223300000000     0.444100000000     0          
O        O      0.416733333333     0.197050000000     0.425400000000     0          
O        O      0.433433333333     0.250000000000     0.500000000000     0          
O        O      0.333333333333     0.178350000000     0.399400000000     0          
O        O      0.440666666667     0.213700000000     0.914400000000     0          
O        O      0.433933333333     0.129300000000     0.875200000000     0          
O        O      0.500000000000     0.186450000000     0.850300000000     0          
O        O      0.416933333333     0.205650000000     0.824600000000     0          
O        O      0.606733333333     0.295100000000     0.835600000000     0          
O        O      0.602100000000     0.258150000000     0.750000000000     0          
O        O      0.333333333333     0.231750000000     0.808400000000     0          
O        O      0.500000000000     0.276700000000     0.944100000000     0          
O        O      0.583266666667     0.302950000000     0.925400000000     0          
O        O      0.566566666667     0.250000000000     0.000000000000     0          
O        O      0.333333333333     0.321650000000     0.899400000000     0          
O        O      0.559333333333     0.213700000000     0.585600000000     0          
O        O      0.566066666667     0.129300000000     0.624800000000     0          
O        O      0.500000000000     0.186450000000     0.649700000000     0          
O        O      0.583066666667     0.205650000000     0.675400000000     0          
O        O      0.393266666667     0.295100000000     0.664400000000     0          
O        O      0.397900000000     0.258150000000     0.750000000000     0          
O        O      0.333333333333     0.231750000000     0.691600000000     0          
O        O      0.500000000000     0.276700000000     0.555900000000     0          
O        O      0.416733333333     0.302950000000     0.574600000000     0          
O        O      0.333333333333     0.321650000000     0.600600000000     0          
O        O      0.440666666667     0.286300000000     0.085600000000     0          
O        O      0.433933333333     0.370700000000     0.124800000000     0          
O        O      0.500000000000     0.313550000000     0.149700000000     0          
O        O      0.416933333333     0.294350000000     0.175400000000     0          
O        O      0.606733333333     0.204900000000     0.164400000000     0          
O        O      0.602100000000     0.241850000000     0.250000000000     0          
O        O      0.333333333333     0.268250000000     0.191600000000     0          
O        O      0.500000000000     0.223300000000     0.055900000000     0          
O        O      0.583266666667     0.197050000000     0.074600000000     0          
O        O      0.333333333333     0.178350000000     0.100600000000     0          
O        O      0.440666666667     0.213700000000     0.585600000000     0          
O        O      0.433933333333     0.129300000000     0.624800000000     0          
O        O      0.416933333333     0.205650000000     0.675400000000     0          
O        O      0.606733333333     0.295100000000     0.664400000000     0          
O        O      0.583266666667     0.302950000000     0.574600000000     0          
O        O      0.566566666667     0.250000000000     0.500000000000     0          
O        O      0.559333333333     0.286300000000     0.085600000000     0          
O        O      0.566066666667     0.370700000000     0.124800000000     0          
O        O      0.583066666667     0.294350000000     0.175400000000     0          
O        O      0.393266666667     0.204900000000     0.164400000000     0          
O        O      0.416733333333     0.197050000000     0.074600000000     0          
O        O      0.433433333333     0.250000000000     0.000000000000     0          
O        O      0.440666666667     0.286300000000     0.414400000000     0          
O        O      0.433933333333     0.370700000000     0.375200000000     0          
O        O      0.416933333333     0.294350000000     0.324600000000     0          
O        O      0.606733333333     0.204900000000     0.335600000000     0          
O        O      0.583266666667     0.197050000000     0.425400000000     0          
O        O      0.559333333333     0.213700000000     0.914400000000     0          
O        O      0.566066666667     0.129300000000     0.875200000000     0          
O        O      0.583066666667     0.205650000000     0.824600000000     0          
O        O      0.393266666667     0.295100000000     0.835600000000     0          
O        O      0.416733333333     0.302950000000     0.925400000000     0          
O        O      0.392666666667     0.536300000000     0.414400000000     0          
O        O      0.399400000000     0.620700000000     0.375200000000     0          
O        O      0.333333333333     0.563550000000     0.350300000000     0          
O        O      0.416400000000     0.544350000000     0.324600000000     0          
O        O      0.559933333333     0.954900000000     0.335600000000     0          
O        O      0.564566666667     0.991850000000     0.250000000000     0          
O        O      0.500000000000     0.518250000000     0.308400000000     0          
O        O      0.333333333333     0.973300000000     0.444100000000     0          
O        O      0.583400000000     0.947050000000     0.425400000000     0          
O        O      0.600100000000     0.500000000000     0.500000000000     0          
O        O      0.500000000000     0.928350000000     0.399400000000     0          
O        O      0.607333333333     0.963700000000     0.914400000000     0          
O        O      0.600600000000     0.879300000000     0.875200000000     0          
O        O      0.333333333333     0.936450000000     0.850300000000     0          
O        O      0.583600000000     0.955650000000     0.824600000000     0          
O        O      0.440066666667     0.545100000000     0.835600000000     0          
O        O      0.435433333333     0.508150000000     0.750000000000     0          
O        O      0.500000000000     0.981750000000     0.808400000000     0          
O        O      0.333333333333     0.526700000000     0.944100000000     0          
O        O      0.416600000000     0.552950000000     0.925400000000     0          
O        O      0.399900000000     0.500000000000     0.000000000000     0          
O        O      0.500000000000     0.571650000000     0.899400000000     0          
O        O      0.392666666667     0.963700000000     0.585600000000     0          
O        O      0.399400000000     0.879300000000     0.624800000000     0          
O        O      0.333333333333     0.936450000000     0.649700000000     0          
O        O      0.416400000000     0.955650000000     0.675400000000     0          
O        O      0.559933333333     0.545100000000     0.664400000000     0          
O        O      0.564566666667     0.508150000000     0.750000000000     0          
O        O      0.500000000000     0.981750000000     0.691600000000     0          
O        O      0.333333333333     0.526700000000     0.555900000000     0          
O        O      0.583400000000     0.552950000000     0.574600000000     0          
O        O      0.500000000000     0.571650000000     0.600600000000     0          
O        O      0.607333333333     0.536300000000     0.085600000000     0          
O        O      0.600600000000     0.620700000000     0.124800000000     0          
O        O      0.333333333333     0.563550000000     0.149700000000     0          
O        O      0.583600000000     0.544350000000     0.175400000000     0          
O        O      0.440066666667     0.954900000000     0.164400000000     0          
O        O      0.435433333333     0.991850000000     0.250000000000     0          
O        O      0.500000000000     0.518250000000     0.191600000000     0          
O        O      0.333333333333     0.973300000000     0.055900000000     0          
O        O      0.416600000000     0.947050000000     0.074600000000     0          
O        O      0.500000000000     0.928350000000     0.100600000000     0          
O        O      0.607333333333     0.963700000000     0.585600000000     0          
O        O      0.600600000000     0.879300000000     0.624800000000     0          
O        O      0.583600000000     0.955650000000     0.675400000000     0          
O        O      0.440066666667     0.545100000000     0.664400000000     0          
O        O      0.416600000000     0.552950000000     0.574600000000     0          
O        O      0.399900000000     0.500000000000     0.500000000000     0          
O        O      0.392666666667     0.536300000000     0.085600000000     0          
O        O      0.399400000000     0.620700000000     0.124800000000     0          
O        O      0.416400000000     0.544350000000     0.175400000000     0          
O        O      0.559933333333     0.954900000000     0.164400000000     0          
O        O      0.583400000000     0.947050000000     0.074600000000     0          
O        O      0.600100000000     0.500000000000     0.000000000000     0          
O        O      0.607333333333     0.536300000000     0.414400000000     0          
O        O      0.600600000000     0.620700000000     0.375200000000     0          
O        O      0.583600000000     0.544350000000     0.324600000000     0          
O        O      0.440066666667     0.954900000000     0.335600000000     0          
O        O      0.416600000000     0.947050000000     0.425400000000     0          
O        O      0.392666666667     0.963700000000     0.914400000000     0          
O        O      0.399400000000     0.879300000000     0.875200000000     0          
O        O      0.416400000000     0.955650000000     0.824600000000     0          
O        O      0.559933333333     0.545100000000     0.835600000000     0          
O        O      0.583400000000     0.552950000000     0.925400000000     0          
O        O      0.559333333333     0.786300000000     0.414400000000     0          
O        O      0.566066666667     0.870700000000     0.375200000000     0          
O        O      0.500000000000     0.813550000000     0.350300000000     0          
O        O      0.583066666667     0.794350000000     0.324600000000     0          
O        O      0.393266666667     0.704900000000     0.335600000000     0          
O        O      0.397900000000     0.741850000000     0.250000000000     0          
O        O      0.333333333333     0.768250000000     0.308400000000     0          
O        O      0.500000000000     0.723300000000     0.444100000000     0          
O        O      0.416733333333     0.697050000000     0.425400000000     0          
O        O      0.433433333333     0.750000000000     0.500000000000     0          
O        O      0.333333333333     0.678350000000     0.399400000000     0          
O        O      0.440666666667     0.713700000000     0.914400000000     0          
O        O      0.433933333333     0.629300000000     0.875200000000     0          
O        O      0.500000000000     0.686450000000     0.850300000000     0          
O        O      0.416933333333     0.705650000000     0.824600000000     0          
O        O      0.606733333333     0.795100000000     0.835600000000     0          
O        O      0.602100000000     0.758150000000     0.750000000000     0          
O        O      0.333333333333     0.731750000000     0.808400000000     0          
O        O      0.500000000000     0.776700000000     0.944100000000     0          
O        O      0.583266666667     0.802950000000     0.925400000000     0          
O        O      0.566566666667     0.750000000000     0.000000000000     0          
O        O      0.333333333333     0.821650000000     0.899400000000     0          
O        O      0.559333333333     0.713700000000     0.585600000000     0          
O        O      0.566066666667     0.629300000000     0.624800000000     0          
O        O      0.500000000000     0.686450000000     0.649700000000     0          
O        O      0.583066666667     0.705650000000     0.675400000000     0          
O        O      0.393266666667     0.795100000000     0.664400000000     0          
O        O      0.397900000000     0.758150000000     0.750000000000     0          
O        O      0.333333333333     0.731750000000     0.691600000000     0          
O        O      0.500000000000     0.776700000000     0.555900000000     0          
O        O      0.416733333333     0.802950000000     0.574600000000     0          
O        O      0.333333333333     0.821650000000     0.600600000000     0          
O        O      0.440666666667     0.786300000000     0.085600000000     0          
O        O      0.433933333333     0.870700000000     0.124800000000     0          
O        O      0.500000000000     0.813550000000     0.149700000000     0          
O        O      0.416933333333     0.794350000000     0.175400000000     0          
O        O      0.606733333333     0.704900000000     0.164400000000     0          
O        O      0.602100000000     0.741850000000     0.250000000000     0          
O        O      0.333333333333     0.768250000000     0.191600000000     0          
O        O      0.500000000000     0.723300000000     0.055900000000     0          
O        O      0.583266666667     0.697050000000     0.074600000000     0          
O        O      0.333333333333     0.678350000000     0.100600000000     0          
O        O      0.440666666667     0.713700000000     0.585600000000     0          
O        O      0.433933333333     0.629300000000     0.624800000000     0          
O        O      0.416933333333     0.705650000000     0.675400000000     0          
O        O      0.606733333333     0.795100000000     0.664400000000     0          
O        O      0.583266666667     0.802950000000     0.574600000000     0          
O        O      0.566566666667     0.750000000000     0.500000000000     0          
O        O      0.559333333333     0.786300000000     0.085600000000     0          
O        O      0.566066666667     0.870700000000     0.124800000000     0          
O        O      0.583066666667     0.794350000000     0.175400000000     0          
O        O      0.393266666667     0.704900000000     0.164400000000     0          
O        O      0.416733333333     0.697050000000     0.074600000000     0          
O        O      0.433433333333     0.750000000000     0.000000000000     0          
O        O      0.440666666667     0.786300000000     0.414400000000     0          
O        O      0.433933333333     0.870700000000     0.375200000000     0          
O        O      0.416933333333     0.794350000000     0.324600000000     0          
O        O      0.606733333333     0.704900000000     0.335600000000     0          
O        O      0.583266666667     0.697050000000     0.425400000000     0          
O        O      0.559333333333     0.713700000000     0.914400000000     0          
O        O      0.566066666667     0.629300000000     0.875200000000     0          
O        O      0.583066666667     0.705650000000     0.824600000000     0          
O        O      0.393266666667     0.795100000000     0.835600000000     0          
O        O      0.416733333333     0.802950000000     0.925400000000     0          
O        O      0.726000000000     0.036300000000     0.414400000000     0          
O        O      0.732733333333     0.120700000000     0.375200000000     0          
O        O      0.666666666667     0.063550000000     0.350300000000     0          
O        O      0.749733333333     0.044350000000     0.324600000000     0          
O        O      0.893266666667     0.454900000000     0.335600000000     0          
O        O      0.897900000000     0.491850000000     0.250000000000     0          
O        O      0.833333333333     0.018250000000     0.308400000000     0          
O        O      0.666666666667     0.473300000000     0.444100000000     0          
O        O      0.916733333333     0.447050000000     0.425400000000     0          
O        O      0.933433333333     0.000000000000     0.500000000000     0          
O        O      0.833333333333     0.428350000000     0.399400000000     0          
O        O      0.940666666667     0.463700000000     0.914400000000     0          
O        O      0.933933333333     0.379300000000     0.875200000000     0          
O        O      0.666666666667     0.436450000000     0.850300000000     0          
O        O      0.916933333333     0.455650000000     0.824600000000     0          
O        O      0.773400000000     0.045100000000     0.835600000000     0          
O        O      0.768766666667     0.008150000000     0.750000000000     0          
O        O      0.833333333333     0.481750000000     0.808400000000     0          
O        O      0.666666666667     0.026700000000     0.944100000000     0          
O        O      0.749933333333     0.052950000000     0.925400000000     0          
O        O      0.733233333333     0.000000000000     0.000000000000     0          
O        O      0.833333333333     0.071650000000     0.899400000000     0          
O        O      0.726000000000     0.463700000000     0.585600000000     0          
O        O      0.732733333333     0.379300000000     0.624800000000     0          
O        O      0.666666666667     0.436450000000     0.649700000000     0          
O        O      0.749733333333     0.455650000000     0.675400000000     0          
O        O      0.893266666667     0.045100000000     0.664400000000     0          
O        O      0.897900000000     0.008150000000     0.750000000000     0          
O        O      0.833333333333     0.481750000000     0.691600000000     0          
O        O      0.666666666667     0.026700000000     0.555900000000     0          
O        O      0.916733333333     0.052950000000     0.574600000000     0          
O        O      0.833333333333     0.071650000000     0.600600000000     0          
O        O      0.940666666667     0.036300000000     0.085600000000     0          
O        O      0.933933333333     0.120700000000     0.124800000000     0          
O        O      0.666666666667     0.063550000000     0.149700000000     0          
O        O      0.916933333333     0.044350000000     0.175400000000     0          
O        O      0.773400000000     0.454900000000     0.164400000000     0          
O        O      0.768766666667     0.491850000000     0.250000000000     0          
O        O      0.833333333333     0.018250000000     0.191600000000     0          
O        O      0.666666666667     0.473300000000     0.055900000000     0          
O        O      0.749933333333     0.447050000000     0.074600000000     0          
O        O      0.833333333333     0.428350000000     0.100600000000     0          
O        O      0.940666666667     0.463700000000     0.585600000000     0          
O        O      0.933933333333     0.379300000000     0.624800000000     0          
O        O      0.916933333333     0.455650000000     0.675400000000     0          
O        O      0.773400000000     0.045100000000     0.664400000000     0          
O        O      0.749933333333     0.052950000000     0.574600000000     0          
O        O      0.733233333333     0.000000000000     0.500000000000     0          
O        O      0.726000000000     0.036300000000     0.085600000000     0          
O        O      0.732733333333     0.120700000000     0.124800000000     0          
O        O      0.749733333333     0.044350000000     0.175400000000     0          
O        O      0.893266666667     0.454900000000     0.164400000000     0          
O        O      0.916733333333     0.447050000000     0.074600000000     0          
O        O      0.933433333333     0.000000000000     0.000000000000     0          
O        O      0.940666666667     0.036300000000     0.414400000000     0          
O        O      0.933933333333     0.120700000000     0.375200000000     0          
O        O      0.916933333333     0.044350000000     0.324600000000     0          
O        O      0.773400000000     0.454900000000     0.335600000000     0          
O        O      0.749933333333     0.447050000000     0.425400000000     0          
O        O      0.726000000000     0.463700000000     0.914400000000     0          
O        O      0.732733333333     0.379300000000     0.875200000000     0          
O        O      0.749733333333     0.455650000000     0.824600000000     0          
O        O      0.893266666667     0.045100000000     0.835600000000     0          
O        O      0.916733333333     0.052950000000     0.925400000000     0          
O        O      0.892666666667     0.286300000000     0.414400000000     0          
O        O      0.899400000000     0.370700000000     0.375200000000     0          
O        O      0.833333333333     0.313550000000     0.350300000000     0          
O        O      0.916400000000     0.294350000000     0.324600000000     0          
O        O      0.726600000000     0.204900000000     0.335600000000     0          
O        O      0.731233333333     0.241850000000     0.250000000000     0          
O        O      0.666666666667     0.268250000000     0.308400000000     0          
O        O      0.833333333333     0.223300000000     0.444100000000     0          
O        O      0.750066666667     0.197050000000     0.425400000000     0          
O        O      0.766766666667     0.250000000000     0.500000000000     0          
O        O      0.666666666667     0.178350000000     0.399400000000     0          
O        O      0.774000000000     0.213700000000     0.914400000000     0          
O        O      0.767266666667     0.129300000000     0.875200000000     0          
O        O      0.833333333333     0.186450000000     0.850300000000     0          
O        O      0.750266666667     0.205650000000     0.824600000000     0          
O        O      0.940066666667     0.295100000000     0.835600000000     0          
O        O      0.935433333333     0.258150000000     0.750000000000     0          
O        O      0.666666666667     0.231750000000     0.808400000000     0          
O        O      0.833333333333     0.276700000000     0.944100000000     0          
O        O      0.916600000000     0.302950000000     0.925400000000     0          
O        O      0.899900000000     0.250000000000     0.000000000000     0          
O        O      0.666666666667     0.321650000000     0.899400000000     0          
O        O      0.892666666667     0.213700000000     0.585600000000     0          
O        O      0.899400000000     0.129300000000     0.624800000000     0          
O        O      0.833333333333     0.186450000000     0.649700000000     0          
O        O      0.916400000000     0.205650000000     0.675400000000     0          
O        O      0.726600000000     0.295100000000     0.664400000000     0          
O        O      0.731233333333     0.258150000000     0.750000000000     0          
O        O      0.666666666667     0.231750000000     0.691600000000     0          
O        O      0.833333333333     0.276700000000     0.555900000000     0          
O        O      0.750066666667     0.302950000000     0.574600000000     0          
O        O      0.666666666667     0.321650000000     0.600600000000     0          
O        O      0.774000000000     0.286300000000     0.085600000000     0          
O        O      0.767266666667     0.370700000000     0.124800000000     0          
O        O      0.833333333333     0.313550000000     0.149700000000     0          
O        O      0.750266666667     0.294350000000     0.175400000000     0          
O        O      0.940066666667     0.204900000000     0.164400000000     0          
O        O      0.935433333333     0.241850000000     0.250000000000     0          
O        O      0.666666666667     0.268250000000     0.191600000000     0          
O        O      0.833333333333     0.223300000000     0.055900000000     0          
O        O      0.916600000000     0.197050000000     0.074600000000     0          
O        O      0.666666666667     0.178350000000     0.100600000000     0          
O        O      0.774000000000     0.213700000000     0.585600000000     0          
O        O      0.767266666667     0.129300000000     0.624800000000     0          
O        O      0.750266666667     0.205650000000     0.675400000000     0          
O        O      0.940066666667     0.295100000000     0.664400000000     0          
O        O      0.916600000000     0.302950000000     0.574600000000     0          
O        O      0.899900000000     0.250000000000     0.500000000000     0          
O        O      0.892666666667     0.286300000000     0.085600000000     0          
O        O      0.899400000000     0.370700000000     0.124800000000     0          
O        O      0.916400000000     0.294350000000     0.175400000000     0          
O        O      0.726600000000     0.204900000000     0.164400000000     0          
O        O      0.750066666667     0.197050000000     0.074600000000     0          
O        O      0.766766666667     0.250000000000     0.000000000000     0          
O        O      0.774000000000     0.286300000000     0.414400000000     0          
O        O      0.767266666667     0.370700000000     0.375200000000     0          
O        O      0.750266666667     0.294350000000     0.324600000000     0          
O        O      0.940066666667     0.204900000000     0.335600000000     0          
O        O      0.916600000000     0.197050000000     0.425400000000     0          
O        O      0.892666666667     0.213700000000     0.914400000000     0          
O        O      0.899400000000     0.129300000000     0.875200000000     0          
O        O      0.916400000000     0.205650000000     0.824600000000     0          
O        O      0.726600000000     0.295100000000     0.835600000000     0          
O        O      0.750066666667     0.302950000000     0.925400000000     0          
O        O      0.726000000000     0.536300000000     0.414400000000     0          
O        O      0.732733333333     0.620700000000     0.375200000000     0          
O        O      0.666666666667     0.563550000000     0.350300000000     0          
O        O      0.749733333333     0.544350000000     0.324600000000     0          
O        O      0.893266666667     0.954900000000     0.335600000000     0          
O        O      0.897900000000     0.991850000000     0.250000000000     0          
O        O      0.833333333333     0.518250000000     0.308400000000     0          
O        O      0.666666666667     0.973300000000     0.444100000000     0          
O        O      0.916733333333     0.947050000000     0.425400000000     0          
O        O      0.933433333333     0.500000000000     0.500000000000     0          
O        O      0.833333333333     0.928350000000     0.399400000000     0          
O        O      0.940666666667     0.963700000000     0.914400000000     0          
O        O      0.933933333333     0.879300000000     0.875200000000     0          
O        O      0.666666666667     0.936450000000     0.850300000000     0          
O        O      0.916933333333     0.955650000000     0.824600000000     0          
O        O      0.773400000000     0.545100000000     0.835600000000     0          
O        O      0.768766666667     0.508150000000     0.750000000000     0          
O        O      0.833333333333     0.981750000000     0.808400000000     0          
O        O      0.666666666667     0.526700000000     0.944100000000     0          
O        O      0.749933333333     0.552950000000     0.925400000000     0          
O        O      0.733233333333     0.500000000000     0.000000000000     0          
O        O      0.833333333333     0.571650000000     0.899400000000     0          
O        O      0.726000000000     0.963700000000     0.585600000000     0          
O        O      0.732733333333     0.879300000000     0.624800000000     0          
O        O      0.666666666667     0.936450000000     0.649700000000     0          
O        O      0.749733333333     0.955650000000     0.675400000000     0          
O        O      0.893266666667     0.545100000000     0.664400000000     0          
O        O      0.897900000000     0.508150000000     0.750000000000     0          
O        O      0.833333333333     0.981750000000     0.691600000000     0          
O        O      0.666666666667     0.526700000000     0.555900000000     0          
O        O      0.916733333333     0.552950000000     0.574600000000     0          
O        O      0.833333333333     0.571650000000     0.600600000000     0          
O        O      0.940666666667     0.536300000000     0.085600000000     0          
O        O      0.933933333333     0.620700000000     0.124800000000     0          
O        O      0.666666666667     0.563550000000     0.149700000000     0          
O        O      0.916933333333     0.544350000000     0.175400000000     0          
O        O      0.773400000000     0.954900000000     0.164400000000     0          
O        O      0.768766666667     0.991850000000     0.250000000000     0          
O        O      0.833333333333     0.518250000000     0.191600000000     0          
O        O      0.666666666667     0.973300000000     0.055900000000     0          
O        O      0.749933333333     0.947050000000     0.074600000000     0          
O        O      0.833333333333     0.928350000000     0.100600000000     0          
O        O      0.940666666667     0.963700000000     0.585600000000     0          
O        O      0.933933333333     0.879300000000     0.624800000000     0          
O        O      0.916933333333     0.955650000000     0.675400000000     0          
O        O      0.773400000000     0.545100000000     0.664400000000     0          
O        O      0.749933333333     0.552950000000     0.574600000000     0          
O        O      0.733233333333     0.500000000000     0.500000000000     0          
O        O      0.726000000000     0.536300000000     0.085600000000     0          
O        O      0.732733333333     0.620700000000     0.124800000000     0          
O        O      0.749733333333     0.544350000000     0.175400000000     0          
O        O      0.893266666667     0.954900000000     0.164400000000     0          
O        O      0.916733333333     0.947050000000     0.074600000000     0          
O        O      0.933433333333     0.500000000000     0.000000000000     0          
O        O      0.940666666667     0.536300000000     0.414400000000     0          
O        O      0.933933333333     0.620700000000     0.375200000000     0          
O        O      0.916933333333     0.544350000000     0.324600000000     0          
O        O      0.773400000000     0.954900000000     0.335600000000     0          
O        O      0.749933333333     0.947050000000     0.425400000000     0          
O        O      0.726000000000     0.963700000000     0.914400000000     0          
O        O      0.732733333333     0.879300000000     0.875200000000     0          
O        O      0.749733333333     0.955650000000     0.824600000000     0          
O        O      0.893266666667     0.545100000000     0.835600000000     0          
O        O      0.916733333333     0.552950000000     0.925400000000     0          
O        O      0.892666666667     0.786300000000     0.414400000000     0          
O        O      0.899400000000     0.870700000000     0.375200000000     0          
O        O      0.833333333333     0.813550000000     0.350300000000     0          
O        O      0.916400000000     0.794350000000     0.324600000000     0          
O        O      0.726600000000     0.704900000000     0.335600000000     0          
O        O      0.731233333333     0.741850000000     0.250000000000     0          
O        O      0.666666666667     0.768250000000     0.308400000000     0          
O        O      0.833333333333     0.723300000000     0.444100000000     0          
O        O      0.750066666667     0.697050000000     0.425400000000     0          
O        O      0.766766666667     0.750000000000     0.500000000000     0          
O        O      0.666666666667     0.678350000000     0.399400000000     0          
O        O      0.774000000000     0.713700000000     0.914400000000     0          
O        O      0.767266666667     0.629300000000     0.875200000000     0          
O        O      0.833333333333     0.686450000000     0.850300000000     0          
O        O      0.750266666667     0.705650000000     0.824600000000     0          
O        O      0.940066666667     0.795100000000     0.835600000000     0          
O        O      0.935433333333     0.758150000000     0.750000000000     0          
O        O      0.666666666667     0.731750000000     0.808400000000     0          
O        O      0.833333333333     0.776700000000     0.944100000000     0          
O        O      0.916600000000     0.802950000000     0.925400000000     0          
O        O      0.899900000000     0.750000000000     0.000000000000     0          
O        O      0.666666666667     0.821650000000     0.899400000000     0          
O        O      0.892666666667     0.713700000000     0.585600000000     0          
O        O      0.899400000000     0.629300000000     0.624800000000     0          
O        O      0.833333333333     0.686450000000     0.649700000000     0          
O        O      0.916400000000     0.705650000000     0.675400000000     0          
O        O      0.726600000000     0.795100000000     0.664400000000     0          
O        O      0.731233333333     0.758150000000     0.750000000000     0          
O        O      0.666666666667     0.731750000000     0.691600000000     0          
O        O      0.833333333333     0.776700000000     0.555900000000     0          
O        O      0.750066666667     0.802950000000     0.574600000000     0          
O        O      0.666666666667     0.821650000000     0.600600000000     0          
O        O      0.774000000000     0.786300000000     0.085600000000     0          
O        O      0.767266666667     0.870700000000     0.124800000000     0          
O        O      0.833333333333     0.813550000000     0.149700000000     0          
O        O      0.750266666667     0.794350000000     0.175400000000     0          
O        O      0.940066666667     0.704900000000     0.164400000000     0          
O        O      0.935433333333     0.741850000000     0.250000000000     0          
O        O      0.666666666667     0.768250000000     0.191600000000     0          
O        O      0.833333333333     0.723300000000     0.055900000000     0          
O        O      0.916600000000     0.697050000000     0.074600000000     0          
O        O      0.666666666667     0.678350000000     0.100600000000     0          
O        O      0.774000000000     0.713700000000     0.585600000000     0          
O        O      0.767266666667     0.629300000000     0.624800000000     0          
O        O      0.750266666667     0.705650000000     0.675400000000     0          
O        O      0.940066666667     0.795100000000     0.664400000000     0          
O        O      0.916600000000     0.802950000000     0.574600000000     0          
O        O      0.899900000000     0.750000000000     0.500000000000     0          
O        O      0.892666666667     0.786300000000     0.085600000000     0          
O        O      0.899400000000     0.870700000000     0.124800000000     0          
O        O      0.916400000000     0.794350000000     0.175400000000     0          
O        O      0.726600000000     0.704900000000     0.164400000000     0          
O        O      0.750066666667     0.697050000000     0.074600000000     0          
O        O      0.766766666667     0.750000000000     0.000000000000     0          
O        O      0.774000000000     0.786300000000     0.414400000000     0          
O        O      0.767266666667     0.870700000000     0.375200000000     0          
O        O      0.750266666667     0.794350000000     0.324600000000     0          
O        O      0.940066666667     0.704900000000     0.335600000000     0          
O        O      0.916600000000     0.697050000000     0.425400000000     0          
O        O      0.892666666667     0.713700000000     0.914400000000     0          
O        O      0.899400000000     0.629300000000     0.875200000000     0          
O        O      0.916400000000     0.705650000000     0.824600000000     0          
O        O      0.726600000000     0.795100000000     0.835600000000     0          
O        O      0.750066666667     0.802950000000     0.925400000000     0          


