data_zeolite

_audit_creation_method RASPA-1.0
_audit_creation_date 2021-6-6
_audit_author_name ''

_cell_length_a    13.8271
_cell_length_b    13.8271
_cell_length_c    8.58035
_cell_angle_alpha 90
_cell_angle_beta  90
_cell_angle_gamma 120
_cell_volume      38358.5

_symmetry_cell_setting          hexagonal
_symmetry_space_group_name_Hall 'P 1'
_symmetry_space_group_name_H-M  'P 1'
_symmetry_Int_Tables_number     1

_symmetry_equiv_pos_as_xyz 'x,y,z'

loop_
_atom_site_label
_atom_site_type_symbol
_atom_site_fract_x
_atom_site_fract_y
_atom_site_fract_z
_atom_site_charge
T        Si     0.152166666667     0.111123333333     0.062450000000     0          
T        Si     0.041043333333     0.152166666667     0.062450000000     0          
T        Si     0.222210000000     0.041043333333     0.062450000000     0          
T        Si     0.181166666667     0.222210000000     0.062450000000     0          
T        Si     0.292290000000     0.181166666667     0.062450000000     0          
T        Si     0.111123333333     0.292290000000     0.062450000000     0          
T        Si     0.222210000000     0.181166666667     0.104216666667     0          
T        Si     0.041043333333     0.222210000000     0.104216666667     0          
T        Si     0.152166666667     0.041043333333     0.104216666667     0          
T        Si     0.111123333333     0.152166666667     0.104216666667     0          
T        Si     0.292290000000     0.111123333333     0.104216666667     0          
T        Si     0.181166666667     0.292290000000     0.104216666667     0          
T        Si     0.181166666667     0.222210000000     0.270883333333     0          
T        Si     0.292290000000     0.181166666667     0.270883333333     0          
T        Si     0.111123333333     0.292290000000     0.270883333333     0          
T        Si     0.152166666667     0.111123333333     0.270883333333     0          
T        Si     0.041043333333     0.152166666667     0.270883333333     0          
T        Si     0.222210000000     0.041043333333     0.270883333333     0          
T        Si     0.111123333333     0.152166666667     0.229116666667     0          
T        Si     0.292290000000     0.111123333333     0.229116666667     0          
T        Si     0.181166666667     0.292290000000     0.229116666667     0          
T        Si     0.222210000000     0.181166666667     0.229116666667     0          
T        Si     0.041043333333     0.222210000000     0.229116666667     0          
T        Si     0.152166666667     0.041043333333     0.229116666667     0          
T        Si     0.152166666667     0.111123333333     0.395783333333     0          
T        Si     0.041043333333     0.152166666667     0.395783333333     0          
T        Si     0.222210000000     0.041043333333     0.395783333333     0          
T        Si     0.181166666667     0.222210000000     0.395783333333     0          
T        Si     0.292290000000     0.181166666667     0.395783333333     0          
T        Si     0.111123333333     0.292290000000     0.395783333333     0          
T        Si     0.222210000000     0.181166666667     0.437550000000     0          
T        Si     0.041043333333     0.222210000000     0.437550000000     0          
T        Si     0.152166666667     0.041043333333     0.437550000000     0          
T        Si     0.111123333333     0.152166666667     0.437550000000     0          
T        Si     0.292290000000     0.111123333333     0.437550000000     0          
T        Si     0.181166666667     0.292290000000     0.437550000000     0          
T        Si     0.181166666667     0.222210000000     0.604216666667     0          
T        Si     0.292290000000     0.181166666667     0.604216666667     0          
T        Si     0.111123333333     0.292290000000     0.604216666667     0          
T        Si     0.152166666667     0.111123333333     0.604216666667     0          
T        Si     0.041043333333     0.152166666667     0.604216666667     0          
T        Si     0.222210000000     0.041043333333     0.604216666667     0          
T        Si     0.111123333333     0.152166666667     0.562450000000     0          
T        Si     0.292290000000     0.111123333333     0.562450000000     0          
T        Si     0.181166666667     0.292290000000     0.562450000000     0          
T        Si     0.222210000000     0.181166666667     0.562450000000     0          
T        Si     0.041043333333     0.222210000000     0.562450000000     0          
T        Si     0.152166666667     0.041043333333     0.562450000000     0          
T        Si     0.152166666667     0.111123333333     0.729116666667     0          
T        Si     0.041043333333     0.152166666667     0.729116666667     0          
T        Si     0.222210000000     0.041043333333     0.729116666667     0          
T        Si     0.181166666667     0.222210000000     0.729116666667     0          
T        Si     0.292290000000     0.181166666667     0.729116666667     0          
T        Si     0.111123333333     0.292290000000     0.729116666667     0          
T        Si     0.222210000000     0.181166666667     0.770883333333     0          
T        Si     0.041043333333     0.222210000000     0.770883333333     0          
T        Si     0.152166666667     0.041043333333     0.770883333333     0          
T        Si     0.111123333333     0.152166666667     0.770883333333     0          
T        Si     0.292290000000     0.111123333333     0.770883333333     0          
T        Si     0.181166666667     0.292290000000     0.770883333333     0          
T        Si     0.181166666667     0.222210000000     0.937550000000     0          
T        Si     0.292290000000     0.181166666667     0.937550000000     0          
T        Si     0.111123333333     0.292290000000     0.937550000000     0          
T        Si     0.152166666667     0.111123333333     0.937550000000     0          
T        Si     0.041043333333     0.152166666667     0.937550000000     0          
T        Si     0.222210000000     0.041043333333     0.937550000000     0          
T        Si     0.111123333333     0.152166666667     0.895783333333     0          
T        Si     0.292290000000     0.111123333333     0.895783333333     0          
T        Si     0.181166666667     0.292290000000     0.895783333333     0          
T        Si     0.222210000000     0.181166666667     0.895783333333     0          
T        Si     0.041043333333     0.222210000000     0.895783333333     0          
T        Si     0.152166666667     0.041043333333     0.895783333333     0          
T        Si     0.152166666667     0.444456666667     0.062450000000     0          
T        Si     0.041043333333     0.485500000000     0.062450000000     0          
T        Si     0.222210000000     0.374376666667     0.062450000000     0          
T        Si     0.181166666667     0.555543333333     0.062450000000     0          
T        Si     0.292290000000     0.514500000000     0.062450000000     0          
T        Si     0.111123333333     0.625623333333     0.062450000000     0          
T        Si     0.222210000000     0.514500000000     0.104216666667     0          
T        Si     0.041043333333     0.555543333333     0.104216666667     0          
T        Si     0.152166666667     0.374376666667     0.104216666667     0          
T        Si     0.111123333333     0.485500000000     0.104216666667     0          
T        Si     0.292290000000     0.444456666667     0.104216666667     0          
T        Si     0.181166666667     0.625623333333     0.104216666667     0          
T        Si     0.181166666667     0.555543333333     0.270883333333     0          
T        Si     0.292290000000     0.514500000000     0.270883333333     0          
T        Si     0.111123333333     0.625623333333     0.270883333333     0          
T        Si     0.152166666667     0.444456666667     0.270883333333     0          
T        Si     0.041043333333     0.485500000000     0.270883333333     0          
T        Si     0.222210000000     0.374376666667     0.270883333333     0          
T        Si     0.111123333333     0.485500000000     0.229116666667     0          
T        Si     0.292290000000     0.444456666667     0.229116666667     0          
T        Si     0.181166666667     0.625623333333     0.229116666667     0          
T        Si     0.222210000000     0.514500000000     0.229116666667     0          
T        Si     0.041043333333     0.555543333333     0.229116666667     0          
T        Si     0.152166666667     0.374376666667     0.229116666667     0          
T        Si     0.152166666667     0.444456666667     0.395783333333     0          
T        Si     0.041043333333     0.485500000000     0.395783333333     0          
T        Si     0.222210000000     0.374376666667     0.395783333333     0          
T        Si     0.181166666667     0.555543333333     0.395783333333     0          
T        Si     0.292290000000     0.514500000000     0.395783333333     0          
T        Si     0.111123333333     0.625623333333     0.395783333333     0          
T        Si     0.222210000000     0.514500000000     0.437550000000     0          
T        Si     0.041043333333     0.555543333333     0.437550000000     0          
T        Si     0.152166666667     0.374376666667     0.437550000000     0          
T        Si     0.111123333333     0.485500000000     0.437550000000     0          
T        Si     0.292290000000     0.444456666667     0.437550000000     0          
T        Si     0.181166666667     0.625623333333     0.437550000000     0          
T        Si     0.181166666667     0.555543333333     0.604216666667     0          
T        Si     0.292290000000     0.514500000000     0.604216666667     0          
T        Si     0.111123333333     0.625623333333     0.604216666667     0          
T        Si     0.152166666667     0.444456666667     0.604216666667     0          
T        Si     0.041043333333     0.485500000000     0.604216666667     0          
T        Si     0.222210000000     0.374376666667     0.604216666667     0          
T        Si     0.111123333333     0.485500000000     0.562450000000     0          
T        Si     0.292290000000     0.444456666667     0.562450000000     0          
T        Si     0.181166666667     0.625623333333     0.562450000000     0          
T        Si     0.222210000000     0.514500000000     0.562450000000     0          
T        Si     0.041043333333     0.555543333333     0.562450000000     0          
T        Si     0.152166666667     0.374376666667     0.562450000000     0          
T        Si     0.152166666667     0.444456666667     0.729116666667     0          
T        Si     0.041043333333     0.485500000000     0.729116666667     0          
T        Si     0.222210000000     0.374376666667     0.729116666667     0          
T        Si     0.181166666667     0.555543333333     0.729116666667     0          
T        Si     0.292290000000     0.514500000000     0.729116666667     0          
T        Si     0.111123333333     0.625623333333     0.729116666667     0          
T        Si     0.222210000000     0.514500000000     0.770883333333     0          
T        Si     0.041043333333     0.555543333333     0.770883333333     0          
T        Si     0.152166666667     0.374376666667     0.770883333333     0          
T        Si     0.111123333333     0.485500000000     0.770883333333     0          
T        Si     0.292290000000     0.444456666667     0.770883333333     0          
T        Si     0.181166666667     0.625623333333     0.770883333333     0          
T        Si     0.181166666667     0.555543333333     0.937550000000     0          
T        Si     0.292290000000     0.514500000000     0.937550000000     0          
T        Si     0.111123333333     0.625623333333     0.937550000000     0          
T        Si     0.152166666667     0.444456666667     0.937550000000     0          
T        Si     0.041043333333     0.485500000000     0.937550000000     0          
T        Si     0.222210000000     0.374376666667     0.937550000000     0          
T        Si     0.111123333333     0.485500000000     0.895783333333     0          
T        Si     0.292290000000     0.444456666667     0.895783333333     0          
T        Si     0.181166666667     0.625623333333     0.895783333333     0          
T        Si     0.222210000000     0.514500000000     0.895783333333     0          
T        Si     0.041043333333     0.555543333333     0.895783333333     0          
T        Si     0.152166666667     0.374376666667     0.895783333333     0          
T        Si     0.152166666667     0.777790000000     0.062450000000     0          
T        Si     0.041043333333     0.818833333333     0.062450000000     0          
T        Si     0.222210000000     0.707710000000     0.062450000000     0          
T        Si     0.181166666667     0.888876666667     0.062450000000     0          
T        Si     0.292290000000     0.847833333333     0.062450000000     0          
T        Si     0.111123333333     0.958956666667     0.062450000000     0          
T        Si     0.222210000000     0.847833333333     0.104216666667     0          
T        Si     0.041043333333     0.888876666667     0.104216666667     0          
T        Si     0.152166666667     0.707710000000     0.104216666667     0          
T        Si     0.111123333333     0.818833333333     0.104216666667     0          
T        Si     0.292290000000     0.777790000000     0.104216666667     0          
T        Si     0.181166666667     0.958956666667     0.104216666667     0          
T        Si     0.181166666667     0.888876666667     0.270883333333     0          
T        Si     0.292290000000     0.847833333333     0.270883333333     0          
T        Si     0.111123333333     0.958956666667     0.270883333333     0          
T        Si     0.152166666667     0.777790000000     0.270883333333     0          
T        Si     0.041043333333     0.818833333333     0.270883333333     0          
T        Si     0.222210000000     0.707710000000     0.270883333333     0          
T        Si     0.111123333333     0.818833333333     0.229116666667     0          
T        Si     0.292290000000     0.777790000000     0.229116666667     0          
T        Si     0.181166666667     0.958956666667     0.229116666667     0          
T        Si     0.222210000000     0.847833333333     0.229116666667     0          
T        Si     0.041043333333     0.888876666667     0.229116666667     0          
T        Si     0.152166666667     0.707710000000     0.229116666667     0          
T        Si     0.152166666667     0.777790000000     0.395783333333     0          
T        Si     0.041043333333     0.818833333333     0.395783333333     0          
T        Si     0.222210000000     0.707710000000     0.395783333333     0          
T        Si     0.181166666667     0.888876666667     0.395783333333     0          
T        Si     0.292290000000     0.847833333333     0.395783333333     0          
T        Si     0.111123333333     0.958956666667     0.395783333333     0          
T        Si     0.222210000000     0.847833333333     0.437550000000     0          
T        Si     0.041043333333     0.888876666667     0.437550000000     0          
T        Si     0.152166666667     0.707710000000     0.437550000000     0          
T        Si     0.111123333333     0.818833333333     0.437550000000     0          
T        Si     0.292290000000     0.777790000000     0.437550000000     0          
T        Si     0.181166666667     0.958956666667     0.437550000000     0          
T        Si     0.181166666667     0.888876666667     0.604216666667     0          
T        Si     0.292290000000     0.847833333333     0.604216666667     0          
T        Si     0.111123333333     0.958956666667     0.604216666667     0          
T        Si     0.152166666667     0.777790000000     0.604216666667     0          
T        Si     0.041043333333     0.818833333333     0.604216666667     0          
T        Si     0.222210000000     0.707710000000     0.604216666667     0          
T        Si     0.111123333333     0.818833333333     0.562450000000     0          
T        Si     0.292290000000     0.777790000000     0.562450000000     0          
T        Si     0.181166666667     0.958956666667     0.562450000000     0          
T        Si     0.222210000000     0.847833333333     0.562450000000     0          
T        Si     0.041043333333     0.888876666667     0.562450000000     0          
T        Si     0.152166666667     0.707710000000     0.562450000000     0          
T        Si     0.152166666667     0.777790000000     0.729116666667     0          
T        Si     0.041043333333     0.818833333333     0.729116666667     0          
T        Si     0.222210000000     0.707710000000     0.729116666667     0          
T        Si     0.181166666667     0.888876666667     0.729116666667     0          
T        Si     0.292290000000     0.847833333333     0.729116666667     0          
T        Si     0.111123333333     0.958956666667     0.729116666667     0          
T        Si     0.222210000000     0.847833333333     0.770883333333     0          
T        Si     0.041043333333     0.888876666667     0.770883333333     0          
T        Si     0.152166666667     0.707710000000     0.770883333333     0          
T        Si     0.111123333333     0.818833333333     0.770883333333     0          
T        Si     0.292290000000     0.777790000000     0.770883333333     0          
T        Si     0.181166666667     0.958956666667     0.770883333333     0          
T        Si     0.181166666667     0.888876666667     0.937550000000     0          
T        Si     0.292290000000     0.847833333333     0.937550000000     0          
T        Si     0.111123333333     0.958956666667     0.937550000000     0          
T        Si     0.152166666667     0.777790000000     0.937550000000     0          
T        Si     0.041043333333     0.818833333333     0.937550000000     0          
T        Si     0.222210000000     0.707710000000     0.937550000000     0          
T        Si     0.111123333333     0.818833333333     0.895783333333     0          
T        Si     0.292290000000     0.777790000000     0.895783333333     0          
T        Si     0.181166666667     0.958956666667     0.895783333333     0          
T        Si     0.222210000000     0.847833333333     0.895783333333     0          
T        Si     0.041043333333     0.888876666667     0.895783333333     0          
T        Si     0.152166666667     0.707710000000     0.895783333333     0          
T        Si     0.485500000000     0.111123333333     0.062450000000     0          
T        Si     0.374376666667     0.152166666667     0.062450000000     0          
T        Si     0.555543333333     0.041043333333     0.062450000000     0          
T        Si     0.514500000000     0.222210000000     0.062450000000     0          
T        Si     0.625623333333     0.181166666667     0.062450000000     0          
T        Si     0.444456666667     0.292290000000     0.062450000000     0          
T        Si     0.555543333333     0.181166666667     0.104216666667     0          
T        Si     0.374376666667     0.222210000000     0.104216666667     0          
T        Si     0.485500000000     0.041043333333     0.104216666667     0          
T        Si     0.444456666667     0.152166666667     0.104216666667     0          
T        Si     0.625623333333     0.111123333333     0.104216666667     0          
T        Si     0.514500000000     0.292290000000     0.104216666667     0          
T        Si     0.514500000000     0.222210000000     0.270883333333     0          
T        Si     0.625623333333     0.181166666667     0.270883333333     0          
T        Si     0.444456666667     0.292290000000     0.270883333333     0          
T        Si     0.485500000000     0.111123333333     0.270883333333     0          
T        Si     0.374376666667     0.152166666667     0.270883333333     0          
T        Si     0.555543333333     0.041043333333     0.270883333333     0          
T        Si     0.444456666667     0.152166666667     0.229116666667     0          
T        Si     0.625623333333     0.111123333333     0.229116666667     0          
T        Si     0.514500000000     0.292290000000     0.229116666667     0          
T        Si     0.555543333333     0.181166666667     0.229116666667     0          
T        Si     0.374376666667     0.222210000000     0.229116666667     0          
T        Si     0.485500000000     0.041043333333     0.229116666667     0          
T        Si     0.485500000000     0.111123333333     0.395783333333     0          
T        Si     0.374376666667     0.152166666667     0.395783333333     0          
T        Si     0.555543333333     0.041043333333     0.395783333333     0          
T        Si     0.514500000000     0.222210000000     0.395783333333     0          
T        Si     0.625623333333     0.181166666667     0.395783333333     0          
T        Si     0.444456666667     0.292290000000     0.395783333333     0          
T        Si     0.555543333333     0.181166666667     0.437550000000     0          
T        Si     0.374376666667     0.222210000000     0.437550000000     0          
T        Si     0.485500000000     0.041043333333     0.437550000000     0          
T        Si     0.444456666667     0.152166666667     0.437550000000     0          
T        Si     0.625623333333     0.111123333333     0.437550000000     0          
T        Si     0.514500000000     0.292290000000     0.437550000000     0          
T        Si     0.514500000000     0.222210000000     0.604216666667     0          
T        Si     0.625623333333     0.181166666667     0.604216666667     0          
T        Si     0.444456666667     0.292290000000     0.604216666667     0          
T        Si     0.485500000000     0.111123333333     0.604216666667     0          
T        Si     0.374376666667     0.152166666667     0.604216666667     0          
T        Si     0.555543333333     0.041043333333     0.604216666667     0          
T        Si     0.444456666667     0.152166666667     0.562450000000     0          
T        Si     0.625623333333     0.111123333333     0.562450000000     0          
T        Si     0.514500000000     0.292290000000     0.562450000000     0          
T        Si     0.555543333333     0.181166666667     0.562450000000     0          
T        Si     0.374376666667     0.222210000000     0.562450000000     0          
T        Si     0.485500000000     0.041043333333     0.562450000000     0          
T        Si     0.485500000000     0.111123333333     0.729116666667     0          
T        Si     0.374376666667     0.152166666667     0.729116666667     0          
T        Si     0.555543333333     0.041043333333     0.729116666667     0          
T        Si     0.514500000000     0.222210000000     0.729116666667     0          
T        Si     0.625623333333     0.181166666667     0.729116666667     0          
T        Si     0.444456666667     0.292290000000     0.729116666667     0          
T        Si     0.555543333333     0.181166666667     0.770883333333     0          
T        Si     0.374376666667     0.222210000000     0.770883333333     0          
T        Si     0.485500000000     0.041043333333     0.770883333333     0          
T        Si     0.444456666667     0.152166666667     0.770883333333     0          
T        Si     0.625623333333     0.111123333333     0.770883333333     0          
T        Si     0.514500000000     0.292290000000     0.770883333333     0          
T        Si     0.514500000000     0.222210000000     0.937550000000     0          
T        Si     0.625623333333     0.181166666667     0.937550000000     0          
T        Si     0.444456666667     0.292290000000     0.937550000000     0          
T        Si     0.485500000000     0.111123333333     0.937550000000     0          
T        Si     0.374376666667     0.152166666667     0.937550000000     0          
T        Si     0.555543333333     0.041043333333     0.937550000000     0          
T        Si     0.444456666667     0.152166666667     0.895783333333     0          
T        Si     0.625623333333     0.111123333333     0.895783333333     0          
T        Si     0.514500000000     0.292290000000     0.895783333333     0          
T        Si     0.555543333333     0.181166666667     0.895783333333     0          
T        Si     0.374376666667     0.222210000000     0.895783333333     0          
T        Si     0.485500000000     0.041043333333     0.895783333333     0          
T        Si     0.485500000000     0.444456666667     0.062450000000     0          
T        Si     0.374376666667     0.485500000000     0.062450000000     0          
T        Si     0.555543333333     0.374376666667     0.062450000000     0          
T        Si     0.514500000000     0.555543333333     0.062450000000     0          
T        Si     0.625623333333     0.514500000000     0.062450000000     0          
T        Si     0.444456666667     0.625623333333     0.062450000000     0          
T        Si     0.555543333333     0.514500000000     0.104216666667     0          
T        Si     0.374376666667     0.555543333333     0.104216666667     0          
T        Si     0.485500000000     0.374376666667     0.104216666667     0          
T        Si     0.444456666667     0.485500000000     0.104216666667     0          
T        Si     0.625623333333     0.444456666667     0.104216666667     0          
T        Si     0.514500000000     0.625623333333     0.104216666667     0          
T        Si     0.514500000000     0.555543333333     0.270883333333     0          
T        Si     0.625623333333     0.514500000000     0.270883333333     0          
T        Si     0.444456666667     0.625623333333     0.270883333333     0          
T        Si     0.485500000000     0.444456666667     0.270883333333     0          
T        Si     0.374376666667     0.485500000000     0.270883333333     0          
T        Si     0.555543333333     0.374376666667     0.270883333333     0          
T        Si     0.444456666667     0.485500000000     0.229116666667     0          
T        Si     0.625623333333     0.444456666667     0.229116666667     0          
T        Si     0.514500000000     0.625623333333     0.229116666667     0          
T        Si     0.555543333333     0.514500000000     0.229116666667     0          
T        Si     0.374376666667     0.555543333333     0.229116666667     0          
T        Si     0.485500000000     0.374376666667     0.229116666667     0          
T        Si     0.485500000000     0.444456666667     0.395783333333     0          
T        Si     0.374376666667     0.485500000000     0.395783333333     0          
T        Si     0.555543333333     0.374376666667     0.395783333333     0          
T        Si     0.514500000000     0.555543333333     0.395783333333     0          
T        Si     0.625623333333     0.514500000000     0.395783333333     0          
T        Si     0.444456666667     0.625623333333     0.395783333333     0          
T        Si     0.555543333333     0.514500000000     0.437550000000     0          
T        Si     0.374376666667     0.555543333333     0.437550000000     0          
T        Si     0.485500000000     0.374376666667     0.437550000000     0          
T        Si     0.444456666667     0.485500000000     0.437550000000     0          
T        Si     0.625623333333     0.444456666667     0.437550000000     0          
T        Si     0.514500000000     0.625623333333     0.437550000000     0          
T        Si     0.514500000000     0.555543333333     0.604216666667     0          
T        Si     0.625623333333     0.514500000000     0.604216666667     0          
T        Si     0.444456666667     0.625623333333     0.604216666667     0          
T        Si     0.485500000000     0.444456666667     0.604216666667     0          
T        Si     0.374376666667     0.485500000000     0.604216666667     0          
T        Si     0.555543333333     0.374376666667     0.604216666667     0          
T        Si     0.444456666667     0.485500000000     0.562450000000     0          
T        Si     0.625623333333     0.444456666667     0.562450000000     0          
T        Si     0.514500000000     0.625623333333     0.562450000000     0          
T        Si     0.555543333333     0.514500000000     0.562450000000     0          
T        Si     0.374376666667     0.555543333333     0.562450000000     0          
T        Si     0.485500000000     0.374376666667     0.562450000000     0          
T        Si     0.485500000000     0.444456666667     0.729116666667     0          
T        Si     0.374376666667     0.485500000000     0.729116666667     0          
T        Si     0.555543333333     0.374376666667     0.729116666667     0          
T        Si     0.514500000000     0.555543333333     0.729116666667     0          
T        Si     0.625623333333     0.514500000000     0.729116666667     0          
T        Si     0.444456666667     0.625623333333     0.729116666667     0          
T        Si     0.555543333333     0.514500000000     0.770883333333     0          
T        Si     0.374376666667     0.555543333333     0.770883333333     0          
T        Si     0.485500000000     0.374376666667     0.770883333333     0          
T        Si     0.444456666667     0.485500000000     0.770883333333     0          
T        Si     0.625623333333     0.444456666667     0.770883333333     0          
T        Si     0.514500000000     0.625623333333     0.770883333333     0          
T        Si     0.514500000000     0.555543333333     0.937550000000     0          
T        Si     0.625623333333     0.514500000000     0.937550000000     0          
T        Si     0.444456666667     0.625623333333     0.937550000000     0          
T        Si     0.485500000000     0.444456666667     0.937550000000     0          
T        Si     0.374376666667     0.485500000000     0.937550000000     0          
T        Si     0.555543333333     0.374376666667     0.937550000000     0          
T        Si     0.444456666667     0.485500000000     0.895783333333     0          
T        Si     0.625623333333     0.444456666667     0.895783333333     0          
T        Si     0.514500000000     0.625623333333     0.895783333333     0          
T        Si     0.555543333333     0.514500000000     0.895783333333     0          
T        Si     0.374376666667     0.555543333333     0.895783333333     0          
T        Si     0.485500000000     0.374376666667     0.895783333333     0          
T        Si     0.485500000000     0.777790000000     0.062450000000     0          
T        Si     0.374376666667     0.818833333333     0.062450000000     0          
T        Si     0.555543333333     0.707710000000     0.062450000000     0          
T        Si     0.514500000000     0.888876666667     0.062450000000     0          
T        Si     0.625623333333     0.847833333333     0.062450000000     0          
T        Si     0.444456666667     0.958956666667     0.062450000000     0          
T        Si     0.555543333333     0.847833333333     0.104216666667     0          
T        Si     0.374376666667     0.888876666667     0.104216666667     0          
T        Si     0.485500000000     0.707710000000     0.104216666667     0          
T        Si     0.444456666667     0.818833333333     0.104216666667     0          
T        Si     0.625623333333     0.777790000000     0.104216666667     0          
T        Si     0.514500000000     0.958956666667     0.104216666667     0          
T        Si     0.514500000000     0.888876666667     0.270883333333     0          
T        Si     0.625623333333     0.847833333333     0.270883333333     0          
T        Si     0.444456666667     0.958956666667     0.270883333333     0          
T        Si     0.485500000000     0.777790000000     0.270883333333     0          
T        Si     0.374376666667     0.818833333333     0.270883333333     0          
T        Si     0.555543333333     0.707710000000     0.270883333333     0          
T        Si     0.444456666667     0.818833333333     0.229116666667     0          
T        Si     0.625623333333     0.777790000000     0.229116666667     0          
T        Si     0.514500000000     0.958956666667     0.229116666667     0          
T        Si     0.555543333333     0.847833333333     0.229116666667     0          
T        Si     0.374376666667     0.888876666667     0.229116666667     0          
T        Si     0.485500000000     0.707710000000     0.229116666667     0          
T        Si     0.485500000000     0.777790000000     0.395783333333     0          
T        Si     0.374376666667     0.818833333333     0.395783333333     0          
T        Si     0.555543333333     0.707710000000     0.395783333333     0          
T        Si     0.514500000000     0.888876666667     0.395783333333     0          
T        Si     0.625623333333     0.847833333333     0.395783333333     0          
T        Si     0.444456666667     0.958956666667     0.395783333333     0          
T        Si     0.555543333333     0.847833333333     0.437550000000     0          
T        Si     0.374376666667     0.888876666667     0.437550000000     0          
T        Si     0.485500000000     0.707710000000     0.437550000000     0          
T        Si     0.444456666667     0.818833333333     0.437550000000     0          
T        Si     0.625623333333     0.777790000000     0.437550000000     0          
T        Si     0.514500000000     0.958956666667     0.437550000000     0          
T        Si     0.514500000000     0.888876666667     0.604216666667     0          
T        Si     0.625623333333     0.847833333333     0.604216666667     0          
T        Si     0.444456666667     0.958956666667     0.604216666667     0          
T        Si     0.485500000000     0.777790000000     0.604216666667     0          
T        Si     0.374376666667     0.818833333333     0.604216666667     0          
T        Si     0.555543333333     0.707710000000     0.604216666667     0          
T        Si     0.444456666667     0.818833333333     0.562450000000     0          
T        Si     0.625623333333     0.777790000000     0.562450000000     0          
T        Si     0.514500000000     0.958956666667     0.562450000000     0          
T        Si     0.555543333333     0.847833333333     0.562450000000     0          
T        Si     0.374376666667     0.888876666667     0.562450000000     0          
T        Si     0.485500000000     0.707710000000     0.562450000000     0          
T        Si     0.485500000000     0.777790000000     0.729116666667     0          
T        Si     0.374376666667     0.818833333333     0.729116666667     0          
T        Si     0.555543333333     0.707710000000     0.729116666667     0          
T        Si     0.514500000000     0.888876666667     0.729116666667     0          
T        Si     0.625623333333     0.847833333333     0.729116666667     0          
T        Si     0.444456666667     0.958956666667     0.729116666667     0          
T        Si     0.555543333333     0.847833333333     0.770883333333     0          
T        Si     0.374376666667     0.888876666667     0.770883333333     0          
T        Si     0.485500000000     0.707710000000     0.770883333333     0          
T        Si     0.444456666667     0.818833333333     0.770883333333     0          
T        Si     0.625623333333     0.777790000000     0.770883333333     0          
T        Si     0.514500000000     0.958956666667     0.770883333333     0          
T        Si     0.514500000000     0.888876666667     0.937550000000     0          
T        Si     0.625623333333     0.847833333333     0.937550000000     0          
T        Si     0.444456666667     0.958956666667     0.937550000000     0          
T        Si     0.485500000000     0.777790000000     0.937550000000     0          
T        Si     0.374376666667     0.818833333333     0.937550000000     0          
T        Si     0.555543333333     0.707710000000     0.937550000000     0          
T        Si     0.444456666667     0.818833333333     0.895783333333     0          
T        Si     0.625623333333     0.777790000000     0.895783333333     0          
T        Si     0.514500000000     0.958956666667     0.895783333333     0          
T        Si     0.555543333333     0.847833333333     0.895783333333     0          
T        Si     0.374376666667     0.888876666667     0.895783333333     0          
T        Si     0.485500000000     0.707710000000     0.895783333333     0          
T        Si     0.818833333333     0.111123333333     0.062450000000     0          
T        Si     0.707710000000     0.152166666667     0.062450000000     0          
T        Si     0.888876666667     0.041043333333     0.062450000000     0          
T        Si     0.847833333333     0.222210000000     0.062450000000     0          
T        Si     0.958956666667     0.181166666667     0.062450000000     0          
T        Si     0.777790000000     0.292290000000     0.062450000000     0          
T        Si     0.888876666667     0.181166666667     0.104216666667     0          
T        Si     0.707710000000     0.222210000000     0.104216666667     0          
T        Si     0.818833333333     0.041043333333     0.104216666667     0          
T        Si     0.777790000000     0.152166666667     0.104216666667     0          
T        Si     0.958956666667     0.111123333333     0.104216666667     0          
T        Si     0.847833333333     0.292290000000     0.104216666667     0          
T        Si     0.847833333333     0.222210000000     0.270883333333     0          
T        Si     0.958956666667     0.181166666667     0.270883333333     0          
T        Si     0.777790000000     0.292290000000     0.270883333333     0          
T        Si     0.818833333333     0.111123333333     0.270883333333     0          
T        Si     0.707710000000     0.152166666667     0.270883333333     0          
T        Si     0.888876666667     0.041043333333     0.270883333333     0          
T        Si     0.777790000000     0.152166666667     0.229116666667     0          
T        Si     0.958956666667     0.111123333333     0.229116666667     0          
T        Si     0.847833333333     0.292290000000     0.229116666667     0          
T        Si     0.888876666667     0.181166666667     0.229116666667     0          
T        Si     0.707710000000     0.222210000000     0.229116666667     0          
T        Si     0.818833333333     0.041043333333     0.229116666667     0          
T        Si     0.818833333333     0.111123333333     0.395783333333     0          
T        Si     0.707710000000     0.152166666667     0.395783333333     0          
T        Si     0.888876666667     0.041043333333     0.395783333333     0          
T        Si     0.847833333333     0.222210000000     0.395783333333     0          
T        Si     0.958956666667     0.181166666667     0.395783333333     0          
T        Si     0.777790000000     0.292290000000     0.395783333333     0          
T        Si     0.888876666667     0.181166666667     0.437550000000     0          
T        Si     0.707710000000     0.222210000000     0.437550000000     0          
T        Si     0.818833333333     0.041043333333     0.437550000000     0          
T        Si     0.777790000000     0.152166666667     0.437550000000     0          
T        Si     0.958956666667     0.111123333333     0.437550000000     0          
T        Si     0.847833333333     0.292290000000     0.437550000000     0          
T        Si     0.847833333333     0.222210000000     0.604216666667     0          
T        Si     0.958956666667     0.181166666667     0.604216666667     0          
T        Si     0.777790000000     0.292290000000     0.604216666667     0          
T        Si     0.818833333333     0.111123333333     0.604216666667     0          
T        Si     0.707710000000     0.152166666667     0.604216666667     0          
T        Si     0.888876666667     0.041043333333     0.604216666667     0          
T        Si     0.777790000000     0.152166666667     0.562450000000     0          
T        Si     0.958956666667     0.111123333333     0.562450000000     0          
T        Si     0.847833333333     0.292290000000     0.562450000000     0          
T        Si     0.888876666667     0.181166666667     0.562450000000     0          
T        Si     0.707710000000     0.222210000000     0.562450000000     0          
T        Si     0.818833333333     0.041043333333     0.562450000000     0          
T        Si     0.818833333333     0.111123333333     0.729116666667     0          
T        Si     0.707710000000     0.152166666667     0.729116666667     0          
T        Si     0.888876666667     0.041043333333     0.729116666667     0          
T        Si     0.847833333333     0.222210000000     0.729116666667     0          
T        Si     0.958956666667     0.181166666667     0.729116666667     0          
T        Si     0.777790000000     0.292290000000     0.729116666667     0          
T        Si     0.888876666667     0.181166666667     0.770883333333     0          
T        Si     0.707710000000     0.222210000000     0.770883333333     0          
T        Si     0.818833333333     0.041043333333     0.770883333333     0          
T        Si     0.777790000000     0.152166666667     0.770883333333     0          
T        Si     0.958956666667     0.111123333333     0.770883333333     0          
T        Si     0.847833333333     0.292290000000     0.770883333333     0          
T        Si     0.847833333333     0.222210000000     0.937550000000     0          
T        Si     0.958956666667     0.181166666667     0.937550000000     0          
T        Si     0.777790000000     0.292290000000     0.937550000000     0          
T        Si     0.818833333333     0.111123333333     0.937550000000     0          
T        Si     0.707710000000     0.152166666667     0.937550000000     0          
T        Si     0.888876666667     0.041043333333     0.937550000000     0          
T        Si     0.777790000000     0.152166666667     0.895783333333     0          
T        Si     0.958956666667     0.111123333333     0.895783333333     0          
T        Si     0.847833333333     0.292290000000     0.895783333333     0          
T        Si     0.888876666667     0.181166666667     0.895783333333     0          
T        Si     0.707710000000     0.222210000000     0.895783333333     0          
T        Si     0.818833333333     0.041043333333     0.895783333333     0          
T        Si     0.818833333333     0.444456666667     0.062450000000     0          
T        Si     0.707710000000     0.485500000000     0.062450000000     0          
T        Si     0.888876666667     0.374376666667     0.062450000000     0          
T        Si     0.847833333333     0.555543333333     0.062450000000     0          
T        Si     0.958956666667     0.514500000000     0.062450000000     0          
T        Si     0.777790000000     0.625623333333     0.062450000000     0          
T        Si     0.888876666667     0.514500000000     0.104216666667     0          
T        Si     0.707710000000     0.555543333333     0.104216666667     0          
T        Si     0.818833333333     0.374376666667     0.104216666667     0          
T        Si     0.777790000000     0.485500000000     0.104216666667     0          
T        Si     0.958956666667     0.444456666667     0.104216666667     0          
T        Si     0.847833333333     0.625623333333     0.104216666667     0          
T        Si     0.847833333333     0.555543333333     0.270883333333     0          
T        Si     0.958956666667     0.514500000000     0.270883333333     0          
T        Si     0.777790000000     0.625623333333     0.270883333333     0          
T        Si     0.818833333333     0.444456666667     0.270883333333     0          
T        Si     0.707710000000     0.485500000000     0.270883333333     0          
T        Si     0.888876666667     0.374376666667     0.270883333333     0          
T        Si     0.777790000000     0.485500000000     0.229116666667     0          
T        Si     0.958956666667     0.444456666667     0.229116666667     0          
T        Si     0.847833333333     0.625623333333     0.229116666667     0          
T        Si     0.888876666667     0.514500000000     0.229116666667     0          
T        Si     0.707710000000     0.555543333333     0.229116666667     0          
T        Si     0.818833333333     0.374376666667     0.229116666667     0          
T        Si     0.818833333333     0.444456666667     0.395783333333     0          
T        Si     0.707710000000     0.485500000000     0.395783333333     0          
T        Si     0.888876666667     0.374376666667     0.395783333333     0          
T        Si     0.847833333333     0.555543333333     0.395783333333     0          
T        Si     0.958956666667     0.514500000000     0.395783333333     0          
T        Si     0.777790000000     0.625623333333     0.395783333333     0          
T        Si     0.888876666667     0.514500000000     0.437550000000     0          
T        Si     0.707710000000     0.555543333333     0.437550000000     0          
T        Si     0.818833333333     0.374376666667     0.437550000000     0          
T        Si     0.777790000000     0.485500000000     0.437550000000     0          
T        Si     0.958956666667     0.444456666667     0.437550000000     0          
T        Si     0.847833333333     0.625623333333     0.437550000000     0          
T        Si     0.847833333333     0.555543333333     0.604216666667     0          
T        Si     0.958956666667     0.514500000000     0.604216666667     0          
T        Si     0.777790000000     0.625623333333     0.604216666667     0          
T        Si     0.818833333333     0.444456666667     0.604216666667     0          
T        Si     0.707710000000     0.485500000000     0.604216666667     0          
T        Si     0.888876666667     0.374376666667     0.604216666667     0          
T        Si     0.777790000000     0.485500000000     0.562450000000     0          
T        Si     0.958956666667     0.444456666667     0.562450000000     0          
T        Si     0.847833333333     0.625623333333     0.562450000000     0          
T        Si     0.888876666667     0.514500000000     0.562450000000     0          
T        Si     0.707710000000     0.555543333333     0.562450000000     0          
T        Si     0.818833333333     0.374376666667     0.562450000000     0          
T        Si     0.818833333333     0.444456666667     0.729116666667     0          
T        Si     0.707710000000     0.485500000000     0.729116666667     0          
T        Si     0.888876666667     0.374376666667     0.729116666667     0          
T        Si     0.847833333333     0.555543333333     0.729116666667     0          
T        Si     0.958956666667     0.514500000000     0.729116666667     0          
T        Si     0.777790000000     0.625623333333     0.729116666667     0          
T        Si     0.888876666667     0.514500000000     0.770883333333     0          
T        Si     0.707710000000     0.555543333333     0.770883333333     0          
T        Si     0.818833333333     0.374376666667     0.770883333333     0          
T        Si     0.777790000000     0.485500000000     0.770883333333     0          
T        Si     0.958956666667     0.444456666667     0.770883333333     0          
T        Si     0.847833333333     0.625623333333     0.770883333333     0          
T        Si     0.847833333333     0.555543333333     0.937550000000     0          
T        Si     0.958956666667     0.514500000000     0.937550000000     0          
T        Si     0.777790000000     0.625623333333     0.937550000000     0          
T        Si     0.818833333333     0.444456666667     0.937550000000     0          
T        Si     0.707710000000     0.485500000000     0.937550000000     0          
T        Si     0.888876666667     0.374376666667     0.937550000000     0          
T        Si     0.777790000000     0.485500000000     0.895783333333     0          
T        Si     0.958956666667     0.444456666667     0.895783333333     0          
T        Si     0.847833333333     0.625623333333     0.895783333333     0          
T        Si     0.888876666667     0.514500000000     0.895783333333     0          
T        Si     0.707710000000     0.555543333333     0.895783333333     0          
T        Si     0.818833333333     0.374376666667     0.895783333333     0          
T        Si     0.818833333333     0.777790000000     0.062450000000     0          
T        Si     0.707710000000     0.818833333333     0.062450000000     0          
T        Si     0.888876666667     0.707710000000     0.062450000000     0          
T        Si     0.847833333333     0.888876666667     0.062450000000     0          
T        Si     0.958956666667     0.847833333333     0.062450000000     0          
T        Si     0.777790000000     0.958956666667     0.062450000000     0          
T        Si     0.888876666667     0.847833333333     0.104216666667     0          
T        Si     0.707710000000     0.888876666667     0.104216666667     0          
T        Si     0.818833333333     0.707710000000     0.104216666667     0          
T        Si     0.777790000000     0.818833333333     0.104216666667     0          
T        Si     0.958956666667     0.777790000000     0.104216666667     0          
T        Si     0.847833333333     0.958956666667     0.104216666667     0          
T        Si     0.847833333333     0.888876666667     0.270883333333     0          
T        Si     0.958956666667     0.847833333333     0.270883333333     0          
T        Si     0.777790000000     0.958956666667     0.270883333333     0          
T        Si     0.818833333333     0.777790000000     0.270883333333     0          
T        Si     0.707710000000     0.818833333333     0.270883333333     0          
T        Si     0.888876666667     0.707710000000     0.270883333333     0          
T        Si     0.777790000000     0.818833333333     0.229116666667     0          
T        Si     0.958956666667     0.777790000000     0.229116666667     0          
T        Si     0.847833333333     0.958956666667     0.229116666667     0          
T        Si     0.888876666667     0.847833333333     0.229116666667     0          
T        Si     0.707710000000     0.888876666667     0.229116666667     0          
T        Si     0.818833333333     0.707710000000     0.229116666667     0          
T        Si     0.818833333333     0.777790000000     0.395783333333     0          
T        Si     0.707710000000     0.818833333333     0.395783333333     0          
T        Si     0.888876666667     0.707710000000     0.395783333333     0          
T        Si     0.847833333333     0.888876666667     0.395783333333     0          
T        Si     0.958956666667     0.847833333333     0.395783333333     0          
T        Si     0.777790000000     0.958956666667     0.395783333333     0          
T        Si     0.888876666667     0.847833333333     0.437550000000     0          
T        Si     0.707710000000     0.888876666667     0.437550000000     0          
T        Si     0.818833333333     0.707710000000     0.437550000000     0          
T        Si     0.777790000000     0.818833333333     0.437550000000     0          
T        Si     0.958956666667     0.777790000000     0.437550000000     0          
T        Si     0.847833333333     0.958956666667     0.437550000000     0          
T        Si     0.847833333333     0.888876666667     0.604216666667     0          
T        Si     0.958956666667     0.847833333333     0.604216666667     0          
T        Si     0.777790000000     0.958956666667     0.604216666667     0          
T        Si     0.818833333333     0.777790000000     0.604216666667     0          
T        Si     0.707710000000     0.818833333333     0.604216666667     0          
T        Si     0.888876666667     0.707710000000     0.604216666667     0          
T        Si     0.777790000000     0.818833333333     0.562450000000     0          
T        Si     0.958956666667     0.777790000000     0.562450000000     0          
T        Si     0.847833333333     0.958956666667     0.562450000000     0          
T        Si     0.888876666667     0.847833333333     0.562450000000     0          
T        Si     0.707710000000     0.888876666667     0.562450000000     0          
T        Si     0.818833333333     0.707710000000     0.562450000000     0          
T        Si     0.818833333333     0.777790000000     0.729116666667     0          
T        Si     0.707710000000     0.818833333333     0.729116666667     0          
T        Si     0.888876666667     0.707710000000     0.729116666667     0          
T        Si     0.847833333333     0.888876666667     0.729116666667     0          
T        Si     0.958956666667     0.847833333333     0.729116666667     0          
T        Si     0.777790000000     0.958956666667     0.729116666667     0          
T        Si     0.888876666667     0.847833333333     0.770883333333     0          
T        Si     0.707710000000     0.888876666667     0.770883333333     0          
T        Si     0.818833333333     0.707710000000     0.770883333333     0          
T        Si     0.777790000000     0.818833333333     0.770883333333     0          
T        Si     0.958956666667     0.777790000000     0.770883333333     0          
T        Si     0.847833333333     0.958956666667     0.770883333333     0          
T        Si     0.847833333333     0.888876666667     0.937550000000     0          
T        Si     0.958956666667     0.847833333333     0.937550000000     0          
T        Si     0.777790000000     0.958956666667     0.937550000000     0          
T        Si     0.818833333333     0.777790000000     0.937550000000     0          
T        Si     0.707710000000     0.818833333333     0.937550000000     0          
T        Si     0.888876666667     0.707710000000     0.937550000000     0          
T        Si     0.777790000000     0.818833333333     0.895783333333     0          
T        Si     0.958956666667     0.777790000000     0.895783333333     0          
T        Si     0.847833333333     0.958956666667     0.895783333333     0          
T        Si     0.888876666667     0.847833333333     0.895783333333     0          
T        Si     0.707710000000     0.888876666667     0.895783333333     0          
T        Si     0.818833333333     0.707710000000     0.895783333333     0          
O        O      0.152173333333     0.111110000000     0.000000000000     0          
O        O      0.123093333333     0.123093333333     0.083333333333     0          
O        O      0.140013333333     0.070006666667     0.083333333333     0          
O        O      0.193276666667     0.140056666667     0.083333333333     0          
O        O      0.041063333333     0.152173333333     0.000000000000     0          
O        O      0.000000000000     0.123093333333     0.083333333333     0          
O        O      0.070006666667     0.140013333333     0.083333333333     0          
O        O      0.053220000000     0.193276666667     0.083333333333     0          
O        O      0.222223333333     0.041063333333     0.000000000000     0          
O        O      0.210240000000     0.000000000000     0.083333333333     0          
O        O      0.263326666667     0.070006666667     0.083333333333     0          
O        O      0.193276666667     0.053220000000     0.083333333333     0          
O        O      0.181160000000     0.222223333333     0.000000000000     0          
O        O      0.210240000000     0.210240000000     0.083333333333     0          
O        O      0.193320000000     0.263326666667     0.083333333333     0          
O        O      0.140056666667     0.193276666667     0.083333333333     0          
O        O      0.292270000000     0.181160000000     0.000000000000     0          
O        O      0.000000000000     0.210240000000     0.083333333333     0          
O        O      0.263326666667     0.193320000000     0.083333333333     0          
O        O      0.280113333333     0.140056666667     0.083333333333     0          
O        O      0.111110000000     0.292270000000     0.000000000000     0          
O        O      0.123093333333     0.000000000000     0.083333333333     0          
O        O      0.070006666667     0.263326666667     0.083333333333     0          
O        O      0.140056666667     0.280113333333     0.083333333333     0          
O        O      0.222223333333     0.181160000000     0.166666666667     0          
O        O      0.041063333333     0.222223333333     0.166666666667     0          
O        O      0.152173333333     0.041063333333     0.166666666667     0          
O        O      0.111110000000     0.152173333333     0.166666666667     0          
O        O      0.292270000000     0.111110000000     0.166666666667     0          
O        O      0.181160000000     0.292270000000     0.166666666667     0          
O        O      0.210240000000     0.210240000000     0.250000000000     0          
O        O      0.193320000000     0.263326666667     0.250000000000     0          
O        O      0.140056666667     0.193276666667     0.250000000000     0          
O        O      0.000000000000     0.210240000000     0.250000000000     0          
O        O      0.263326666667     0.193320000000     0.250000000000     0          
O        O      0.280113333333     0.140056666667     0.250000000000     0          
O        O      0.123093333333     0.000000000000     0.250000000000     0          
O        O      0.070006666667     0.263326666667     0.250000000000     0          
O        O      0.140056666667     0.280113333333     0.250000000000     0          
O        O      0.123093333333     0.123093333333     0.250000000000     0          
O        O      0.140013333333     0.070006666667     0.250000000000     0          
O        O      0.193276666667     0.140056666667     0.250000000000     0          
O        O      0.000000000000     0.123093333333     0.250000000000     0          
O        O      0.070006666667     0.140013333333     0.250000000000     0          
O        O      0.053220000000     0.193276666667     0.250000000000     0          
O        O      0.210240000000     0.000000000000     0.250000000000     0          
O        O      0.263326666667     0.070006666667     0.250000000000     0          
O        O      0.193276666667     0.053220000000     0.250000000000     0          
O        O      0.152173333333     0.111110000000     0.333333333333     0          
O        O      0.123093333333     0.123093333333     0.416666666667     0          
O        O      0.140013333333     0.070006666667     0.416666666667     0          
O        O      0.193276666667     0.140056666667     0.416666666667     0          
O        O      0.041063333333     0.152173333333     0.333333333333     0          
O        O      0.000000000000     0.123093333333     0.416666666667     0          
O        O      0.070006666667     0.140013333333     0.416666666667     0          
O        O      0.053220000000     0.193276666667     0.416666666667     0          
O        O      0.222223333333     0.041063333333     0.333333333333     0          
O        O      0.210240000000     0.000000000000     0.416666666667     0          
O        O      0.263326666667     0.070006666667     0.416666666667     0          
O        O      0.193276666667     0.053220000000     0.416666666667     0          
O        O      0.181160000000     0.222223333333     0.333333333333     0          
O        O      0.210240000000     0.210240000000     0.416666666667     0          
O        O      0.193320000000     0.263326666667     0.416666666667     0          
O        O      0.140056666667     0.193276666667     0.416666666667     0          
O        O      0.292270000000     0.181160000000     0.333333333333     0          
O        O      0.000000000000     0.210240000000     0.416666666667     0          
O        O      0.263326666667     0.193320000000     0.416666666667     0          
O        O      0.280113333333     0.140056666667     0.416666666667     0          
O        O      0.111110000000     0.292270000000     0.333333333333     0          
O        O      0.123093333333     0.000000000000     0.416666666667     0          
O        O      0.070006666667     0.263326666667     0.416666666667     0          
O        O      0.140056666667     0.280113333333     0.416666666667     0          
O        O      0.222223333333     0.181160000000     0.500000000000     0          
O        O      0.041063333333     0.222223333333     0.500000000000     0          
O        O      0.152173333333     0.041063333333     0.500000000000     0          
O        O      0.111110000000     0.152173333333     0.500000000000     0          
O        O      0.292270000000     0.111110000000     0.500000000000     0          
O        O      0.181160000000     0.292270000000     0.500000000000     0          
O        O      0.210240000000     0.210240000000     0.583333333333     0          
O        O      0.193320000000     0.263326666667     0.583333333333     0          
O        O      0.140056666667     0.193276666667     0.583333333333     0          
O        O      0.000000000000     0.210240000000     0.583333333333     0          
O        O      0.263326666667     0.193320000000     0.583333333333     0          
O        O      0.280113333333     0.140056666667     0.583333333333     0          
O        O      0.123093333333     0.000000000000     0.583333333333     0          
O        O      0.070006666667     0.263326666667     0.583333333333     0          
O        O      0.140056666667     0.280113333333     0.583333333333     0          
O        O      0.123093333333     0.123093333333     0.583333333333     0          
O        O      0.140013333333     0.070006666667     0.583333333333     0          
O        O      0.193276666667     0.140056666667     0.583333333333     0          
O        O      0.000000000000     0.123093333333     0.583333333333     0          
O        O      0.070006666667     0.140013333333     0.583333333333     0          
O        O      0.053220000000     0.193276666667     0.583333333333     0          
O        O      0.210240000000     0.000000000000     0.583333333333     0          
O        O      0.263326666667     0.070006666667     0.583333333333     0          
O        O      0.193276666667     0.053220000000     0.583333333333     0          
O        O      0.152173333333     0.111110000000     0.666666666667     0          
O        O      0.123093333333     0.123093333333     0.750000000000     0          
O        O      0.140013333333     0.070006666667     0.750000000000     0          
O        O      0.193276666667     0.140056666667     0.750000000000     0          
O        O      0.041063333333     0.152173333333     0.666666666667     0          
O        O      0.000000000000     0.123093333333     0.750000000000     0          
O        O      0.070006666667     0.140013333333     0.750000000000     0          
O        O      0.053220000000     0.193276666667     0.750000000000     0          
O        O      0.222223333333     0.041063333333     0.666666666667     0          
O        O      0.210240000000     0.000000000000     0.750000000000     0          
O        O      0.263326666667     0.070006666667     0.750000000000     0          
O        O      0.193276666667     0.053220000000     0.750000000000     0          
O        O      0.181160000000     0.222223333333     0.666666666667     0          
O        O      0.210240000000     0.210240000000     0.750000000000     0          
O        O      0.193320000000     0.263326666667     0.750000000000     0          
O        O      0.140056666667     0.193276666667     0.750000000000     0          
O        O      0.292270000000     0.181160000000     0.666666666667     0          
O        O      0.000000000000     0.210240000000     0.750000000000     0          
O        O      0.263326666667     0.193320000000     0.750000000000     0          
O        O      0.280113333333     0.140056666667     0.750000000000     0          
O        O      0.111110000000     0.292270000000     0.666666666667     0          
O        O      0.123093333333     0.000000000000     0.750000000000     0          
O        O      0.070006666667     0.263326666667     0.750000000000     0          
O        O      0.140056666667     0.280113333333     0.750000000000     0          
O        O      0.222223333333     0.181160000000     0.833333333333     0          
O        O      0.041063333333     0.222223333333     0.833333333333     0          
O        O      0.152173333333     0.041063333333     0.833333333333     0          
O        O      0.111110000000     0.152173333333     0.833333333333     0          
O        O      0.292270000000     0.111110000000     0.833333333333     0          
O        O      0.181160000000     0.292270000000     0.833333333333     0          
O        O      0.210240000000     0.210240000000     0.916666666667     0          
O        O      0.193320000000     0.263326666667     0.916666666667     0          
O        O      0.140056666667     0.193276666667     0.916666666667     0          
O        O      0.000000000000     0.210240000000     0.916666666667     0          
O        O      0.263326666667     0.193320000000     0.916666666667     0          
O        O      0.280113333333     0.140056666667     0.916666666667     0          
O        O      0.123093333333     0.000000000000     0.916666666667     0          
O        O      0.070006666667     0.263326666667     0.916666666667     0          
O        O      0.140056666667     0.280113333333     0.916666666667     0          
O        O      0.123093333333     0.123093333333     0.916666666667     0          
O        O      0.140013333333     0.070006666667     0.916666666667     0          
O        O      0.193276666667     0.140056666667     0.916666666667     0          
O        O      0.000000000000     0.123093333333     0.916666666667     0          
O        O      0.070006666667     0.140013333333     0.916666666667     0          
O        O      0.053220000000     0.193276666667     0.916666666667     0          
O        O      0.210240000000     0.000000000000     0.916666666667     0          
O        O      0.263326666667     0.070006666667     0.916666666667     0          
O        O      0.193276666667     0.053220000000     0.916666666667     0          
O        O      0.152173333333     0.444443333333     0.000000000000     0          
O        O      0.123093333333     0.456426666667     0.083333333333     0          
O        O      0.140013333333     0.403340000000     0.083333333333     0          
O        O      0.193276666667     0.473390000000     0.083333333333     0          
O        O      0.041063333333     0.485506666667     0.000000000000     0          
O        O      0.000000000000     0.456426666667     0.083333333333     0          
O        O      0.070006666667     0.473346666667     0.083333333333     0          
O        O      0.053220000000     0.526610000000     0.083333333333     0          
O        O      0.222223333333     0.374396666667     0.000000000000     0          
O        O      0.210240000000     0.333333333333     0.083333333333     0          
O        O      0.263326666667     0.403340000000     0.083333333333     0          
O        O      0.193276666667     0.386553333333     0.083333333333     0          
O        O      0.181160000000     0.555556666667     0.000000000000     0          
O        O      0.210240000000     0.543573333333     0.083333333333     0          
O        O      0.193320000000     0.596660000000     0.083333333333     0          
O        O      0.140056666667     0.526610000000     0.083333333333     0          
O        O      0.292270000000     0.514493333333     0.000000000000     0          
O        O      0.000000000000     0.543573333333     0.083333333333     0          
O        O      0.263326666667     0.526653333333     0.083333333333     0          
O        O      0.280113333333     0.473390000000     0.083333333333     0          
O        O      0.111110000000     0.625603333333     0.000000000000     0          
O        O      0.123093333333     0.333333333333     0.083333333333     0          
O        O      0.070006666667     0.596660000000     0.083333333333     0          
O        O      0.140056666667     0.613446666667     0.083333333333     0          
O        O      0.222223333333     0.514493333333     0.166666666667     0          
O        O      0.041063333333     0.555556666667     0.166666666667     0          
O        O      0.152173333333     0.374396666667     0.166666666667     0          
O        O      0.111110000000     0.485506666667     0.166666666667     0          
O        O      0.292270000000     0.444443333333     0.166666666667     0          
O        O      0.181160000000     0.625603333333     0.166666666667     0          
O        O      0.210240000000     0.543573333333     0.250000000000     0          
O        O      0.193320000000     0.596660000000     0.250000000000     0          
O        O      0.140056666667     0.526610000000     0.250000000000     0          
O        O      0.000000000000     0.543573333333     0.250000000000     0          
O        O      0.263326666667     0.526653333333     0.250000000000     0          
O        O      0.280113333333     0.473390000000     0.250000000000     0          
O        O      0.123093333333     0.333333333333     0.250000000000     0          
O        O      0.070006666667     0.596660000000     0.250000000000     0          
O        O      0.140056666667     0.613446666667     0.250000000000     0          
O        O      0.123093333333     0.456426666667     0.250000000000     0          
O        O      0.140013333333     0.403340000000     0.250000000000     0          
O        O      0.193276666667     0.473390000000     0.250000000000     0          
O        O      0.000000000000     0.456426666667     0.250000000000     0          
O        O      0.070006666667     0.473346666667     0.250000000000     0          
O        O      0.053220000000     0.526610000000     0.250000000000     0          
O        O      0.210240000000     0.333333333333     0.250000000000     0          
O        O      0.263326666667     0.403340000000     0.250000000000     0          
O        O      0.193276666667     0.386553333333     0.250000000000     0          
O        O      0.152173333333     0.444443333333     0.333333333333     0          
O        O      0.123093333333     0.456426666667     0.416666666667     0          
O        O      0.140013333333     0.403340000000     0.416666666667     0          
O        O      0.193276666667     0.473390000000     0.416666666667     0          
O        O      0.041063333333     0.485506666667     0.333333333333     0          
O        O      0.000000000000     0.456426666667     0.416666666667     0          
O        O      0.070006666667     0.473346666667     0.416666666667     0          
O        O      0.053220000000     0.526610000000     0.416666666667     0          
O        O      0.222223333333     0.374396666667     0.333333333333     0          
O        O      0.210240000000     0.333333333333     0.416666666667     0          
O        O      0.263326666667     0.403340000000     0.416666666667     0          
O        O      0.193276666667     0.386553333333     0.416666666667     0          
O        O      0.181160000000     0.555556666667     0.333333333333     0          
O        O      0.210240000000     0.543573333333     0.416666666667     0          
O        O      0.193320000000     0.596660000000     0.416666666667     0          
O        O      0.140056666667     0.526610000000     0.416666666667     0          
O        O      0.292270000000     0.514493333333     0.333333333333     0          
O        O      0.000000000000     0.543573333333     0.416666666667     0          
O        O      0.263326666667     0.526653333333     0.416666666667     0          
O        O      0.280113333333     0.473390000000     0.416666666667     0          
O        O      0.111110000000     0.625603333333     0.333333333333     0          
O        O      0.123093333333     0.333333333333     0.416666666667     0          
O        O      0.070006666667     0.596660000000     0.416666666667     0          
O        O      0.140056666667     0.613446666667     0.416666666667     0          
O        O      0.222223333333     0.514493333333     0.500000000000     0          
O        O      0.041063333333     0.555556666667     0.500000000000     0          
O        O      0.152173333333     0.374396666667     0.500000000000     0          
O        O      0.111110000000     0.485506666667     0.500000000000     0          
O        O      0.292270000000     0.444443333333     0.500000000000     0          
O        O      0.181160000000     0.625603333333     0.500000000000     0          
O        O      0.210240000000     0.543573333333     0.583333333333     0          
O        O      0.193320000000     0.596660000000     0.583333333333     0          
O        O      0.140056666667     0.526610000000     0.583333333333     0          
O        O      0.000000000000     0.543573333333     0.583333333333     0          
O        O      0.263326666667     0.526653333333     0.583333333333     0          
O        O      0.280113333333     0.473390000000     0.583333333333     0          
O        O      0.123093333333     0.333333333333     0.583333333333     0          
O        O      0.070006666667     0.596660000000     0.583333333333     0          
O        O      0.140056666667     0.613446666667     0.583333333333     0          
O        O      0.123093333333     0.456426666667     0.583333333333     0          
O        O      0.140013333333     0.403340000000     0.583333333333     0          
O        O      0.193276666667     0.473390000000     0.583333333333     0          
O        O      0.000000000000     0.456426666667     0.583333333333     0          
O        O      0.070006666667     0.473346666667     0.583333333333     0          
O        O      0.053220000000     0.526610000000     0.583333333333     0          
O        O      0.210240000000     0.333333333333     0.583333333333     0          
O        O      0.263326666667     0.403340000000     0.583333333333     0          
O        O      0.193276666667     0.386553333333     0.583333333333     0          
O        O      0.152173333333     0.444443333333     0.666666666667     0          
O        O      0.123093333333     0.456426666667     0.750000000000     0          
O        O      0.140013333333     0.403340000000     0.750000000000     0          
O        O      0.193276666667     0.473390000000     0.750000000000     0          
O        O      0.041063333333     0.485506666667     0.666666666667     0          
O        O      0.000000000000     0.456426666667     0.750000000000     0          
O        O      0.070006666667     0.473346666667     0.750000000000     0          
O        O      0.053220000000     0.526610000000     0.750000000000     0          
O        O      0.222223333333     0.374396666667     0.666666666667     0          
O        O      0.210240000000     0.333333333333     0.750000000000     0          
O        O      0.263326666667     0.403340000000     0.750000000000     0          
O        O      0.193276666667     0.386553333333     0.750000000000     0          
O        O      0.181160000000     0.555556666667     0.666666666667     0          
O        O      0.210240000000     0.543573333333     0.750000000000     0          
O        O      0.193320000000     0.596660000000     0.750000000000     0          
O        O      0.140056666667     0.526610000000     0.750000000000     0          
O        O      0.292270000000     0.514493333333     0.666666666667     0          
O        O      0.000000000000     0.543573333333     0.750000000000     0          
O        O      0.263326666667     0.526653333333     0.750000000000     0          
O        O      0.280113333333     0.473390000000     0.750000000000     0          
O        O      0.111110000000     0.625603333333     0.666666666667     0          
O        O      0.123093333333     0.333333333333     0.750000000000     0          
O        O      0.070006666667     0.596660000000     0.750000000000     0          
O        O      0.140056666667     0.613446666667     0.750000000000     0          
O        O      0.222223333333     0.514493333333     0.833333333333     0          
O        O      0.041063333333     0.555556666667     0.833333333333     0          
O        O      0.152173333333     0.374396666667     0.833333333333     0          
O        O      0.111110000000     0.485506666667     0.833333333333     0          
O        O      0.292270000000     0.444443333333     0.833333333333     0          
O        O      0.181160000000     0.625603333333     0.833333333333     0          
O        O      0.210240000000     0.543573333333     0.916666666667     0          
O        O      0.193320000000     0.596660000000     0.916666666667     0          
O        O      0.140056666667     0.526610000000     0.916666666667     0          
O        O      0.000000000000     0.543573333333     0.916666666667     0          
O        O      0.263326666667     0.526653333333     0.916666666667     0          
O        O      0.280113333333     0.473390000000     0.916666666667     0          
O        O      0.123093333333     0.333333333333     0.916666666667     0          
O        O      0.070006666667     0.596660000000     0.916666666667     0          
O        O      0.140056666667     0.613446666667     0.916666666667     0          
O        O      0.123093333333     0.456426666667     0.916666666667     0          
O        O      0.140013333333     0.403340000000     0.916666666667     0          
O        O      0.193276666667     0.473390000000     0.916666666667     0          
O        O      0.000000000000     0.456426666667     0.916666666667     0          
O        O      0.070006666667     0.473346666667     0.916666666667     0          
O        O      0.053220000000     0.526610000000     0.916666666667     0          
O        O      0.210240000000     0.333333333333     0.916666666667     0          
O        O      0.263326666667     0.403340000000     0.916666666667     0          
O        O      0.193276666667     0.386553333333     0.916666666667     0          
O        O      0.152173333333     0.777776666667     0.000000000000     0          
O        O      0.123093333333     0.789760000000     0.083333333333     0          
O        O      0.140013333333     0.736673333333     0.083333333333     0          
O        O      0.193276666667     0.806723333333     0.083333333333     0          
O        O      0.041063333333     0.818840000000     0.000000000000     0          
O        O      0.000000000000     0.789760000000     0.083333333333     0          
O        O      0.070006666667     0.806680000000     0.083333333333     0          
O        O      0.053220000000     0.859943333333     0.083333333333     0          
O        O      0.222223333333     0.707730000000     0.000000000000     0          
O        O      0.210240000000     0.666666666667     0.083333333333     0          
O        O      0.263326666667     0.736673333333     0.083333333333     0          
O        O      0.193276666667     0.719886666667     0.083333333333     0          
O        O      0.181160000000     0.888890000000     0.000000000000     0          
O        O      0.210240000000     0.876906666667     0.083333333333     0          
O        O      0.193320000000     0.929993333333     0.083333333333     0          
O        O      0.140056666667     0.859943333333     0.083333333333     0          
O        O      0.292270000000     0.847826666667     0.000000000000     0          
O        O      0.000000000000     0.876906666667     0.083333333333     0          
O        O      0.263326666667     0.859986666667     0.083333333333     0          
O        O      0.280113333333     0.806723333333     0.083333333333     0          
O        O      0.111110000000     0.958936666667     0.000000000000     0          
O        O      0.123093333333     0.666666666667     0.083333333333     0          
O        O      0.070006666667     0.929993333333     0.083333333333     0          
O        O      0.140056666667     0.946780000000     0.083333333333     0          
O        O      0.222223333333     0.847826666667     0.166666666667     0          
O        O      0.041063333333     0.888890000000     0.166666666667     0          
O        O      0.152173333333     0.707730000000     0.166666666667     0          
O        O      0.111110000000     0.818840000000     0.166666666667     0          
O        O      0.292270000000     0.777776666667     0.166666666667     0          
O        O      0.181160000000     0.958936666667     0.166666666667     0          
O        O      0.210240000000     0.876906666667     0.250000000000     0          
O        O      0.193320000000     0.929993333333     0.250000000000     0          
O        O      0.140056666667     0.859943333333     0.250000000000     0          
O        O      0.000000000000     0.876906666667     0.250000000000     0          
O        O      0.263326666667     0.859986666667     0.250000000000     0          
O        O      0.280113333333     0.806723333333     0.250000000000     0          
O        O      0.123093333333     0.666666666667     0.250000000000     0          
O        O      0.070006666667     0.929993333333     0.250000000000     0          
O        O      0.140056666667     0.946780000000     0.250000000000     0          
O        O      0.123093333333     0.789760000000     0.250000000000     0          
O        O      0.140013333333     0.736673333333     0.250000000000     0          
O        O      0.193276666667     0.806723333333     0.250000000000     0          
O        O      0.000000000000     0.789760000000     0.250000000000     0          
O        O      0.070006666667     0.806680000000     0.250000000000     0          
O        O      0.053220000000     0.859943333333     0.250000000000     0          
O        O      0.210240000000     0.666666666667     0.250000000000     0          
O        O      0.263326666667     0.736673333333     0.250000000000     0          
O        O      0.193276666667     0.719886666667     0.250000000000     0          
O        O      0.152173333333     0.777776666667     0.333333333333     0          
O        O      0.123093333333     0.789760000000     0.416666666667     0          
O        O      0.140013333333     0.736673333333     0.416666666667     0          
O        O      0.193276666667     0.806723333333     0.416666666667     0          
O        O      0.041063333333     0.818840000000     0.333333333333     0          
O        O      0.000000000000     0.789760000000     0.416666666667     0          
O        O      0.070006666667     0.806680000000     0.416666666667     0          
O        O      0.053220000000     0.859943333333     0.416666666667     0          
O        O      0.222223333333     0.707730000000     0.333333333333     0          
O        O      0.210240000000     0.666666666667     0.416666666667     0          
O        O      0.263326666667     0.736673333333     0.416666666667     0          
O        O      0.193276666667     0.719886666667     0.416666666667     0          
O        O      0.181160000000     0.888890000000     0.333333333333     0          
O        O      0.210240000000     0.876906666667     0.416666666667     0          
O        O      0.193320000000     0.929993333333     0.416666666667     0          
O        O      0.140056666667     0.859943333333     0.416666666667     0          
O        O      0.292270000000     0.847826666667     0.333333333333     0          
O        O      0.000000000000     0.876906666667     0.416666666667     0          
O        O      0.263326666667     0.859986666667     0.416666666667     0          
O        O      0.280113333333     0.806723333333     0.416666666667     0          
O        O      0.111110000000     0.958936666667     0.333333333333     0          
O        O      0.123093333333     0.666666666667     0.416666666667     0          
O        O      0.070006666667     0.929993333333     0.416666666667     0          
O        O      0.140056666667     0.946780000000     0.416666666667     0          
O        O      0.222223333333     0.847826666667     0.500000000000     0          
O        O      0.041063333333     0.888890000000     0.500000000000     0          
O        O      0.152173333333     0.707730000000     0.500000000000     0          
O        O      0.111110000000     0.818840000000     0.500000000000     0          
O        O      0.292270000000     0.777776666667     0.500000000000     0          
O        O      0.181160000000     0.958936666667     0.500000000000     0          
O        O      0.210240000000     0.876906666667     0.583333333333     0          
O        O      0.193320000000     0.929993333333     0.583333333333     0          
O        O      0.140056666667     0.859943333333     0.583333333333     0          
O        O      0.000000000000     0.876906666667     0.583333333333     0          
O        O      0.263326666667     0.859986666667     0.583333333333     0          
O        O      0.280113333333     0.806723333333     0.583333333333     0          
O        O      0.123093333333     0.666666666667     0.583333333333     0          
O        O      0.070006666667     0.929993333333     0.583333333333     0          
O        O      0.140056666667     0.946780000000     0.583333333333     0          
O        O      0.123093333333     0.789760000000     0.583333333333     0          
O        O      0.140013333333     0.736673333333     0.583333333333     0          
O        O      0.193276666667     0.806723333333     0.583333333333     0          
O        O      0.000000000000     0.789760000000     0.583333333333     0          
O        O      0.070006666667     0.806680000000     0.583333333333     0          
O        O      0.053220000000     0.859943333333     0.583333333333     0          
O        O      0.210240000000     0.666666666667     0.583333333333     0          
O        O      0.263326666667     0.736673333333     0.583333333333     0          
O        O      0.193276666667     0.719886666667     0.583333333333     0          
O        O      0.152173333333     0.777776666667     0.666666666667     0          
O        O      0.123093333333     0.789760000000     0.750000000000     0          
O        O      0.140013333333     0.736673333333     0.750000000000     0          
O        O      0.193276666667     0.806723333333     0.750000000000     0          
O        O      0.041063333333     0.818840000000     0.666666666667     0          
O        O      0.000000000000     0.789760000000     0.750000000000     0          
O        O      0.070006666667     0.806680000000     0.750000000000     0          
O        O      0.053220000000     0.859943333333     0.750000000000     0          
O        O      0.222223333333     0.707730000000     0.666666666667     0          
O        O      0.210240000000     0.666666666667     0.750000000000     0          
O        O      0.263326666667     0.736673333333     0.750000000000     0          
O        O      0.193276666667     0.719886666667     0.750000000000     0          
O        O      0.181160000000     0.888890000000     0.666666666667     0          
O        O      0.210240000000     0.876906666667     0.750000000000     0          
O        O      0.193320000000     0.929993333333     0.750000000000     0          
O        O      0.140056666667     0.859943333333     0.750000000000     0          
O        O      0.292270000000     0.847826666667     0.666666666667     0          
O        O      0.000000000000     0.876906666667     0.750000000000     0          
O        O      0.263326666667     0.859986666667     0.750000000000     0          
O        O      0.280113333333     0.806723333333     0.750000000000     0          
O        O      0.111110000000     0.958936666667     0.666666666667     0          
O        O      0.123093333333     0.666666666667     0.750000000000     0          
O        O      0.070006666667     0.929993333333     0.750000000000     0          
O        O      0.140056666667     0.946780000000     0.750000000000     0          
O        O      0.222223333333     0.847826666667     0.833333333333     0          
O        O      0.041063333333     0.888890000000     0.833333333333     0          
O        O      0.152173333333     0.707730000000     0.833333333333     0          
O        O      0.111110000000     0.818840000000     0.833333333333     0          
O        O      0.292270000000     0.777776666667     0.833333333333     0          
O        O      0.181160000000     0.958936666667     0.833333333333     0          
O        O      0.210240000000     0.876906666667     0.916666666667     0          
O        O      0.193320000000     0.929993333333     0.916666666667     0          
O        O      0.140056666667     0.859943333333     0.916666666667     0          
O        O      0.000000000000     0.876906666667     0.916666666667     0          
O        O      0.263326666667     0.859986666667     0.916666666667     0          
O        O      0.280113333333     0.806723333333     0.916666666667     0          
O        O      0.123093333333     0.666666666667     0.916666666667     0          
O        O      0.070006666667     0.929993333333     0.916666666667     0          
O        O      0.140056666667     0.946780000000     0.916666666667     0          
O        O      0.123093333333     0.789760000000     0.916666666667     0          
O        O      0.140013333333     0.736673333333     0.916666666667     0          
O        O      0.193276666667     0.806723333333     0.916666666667     0          
O        O      0.000000000000     0.789760000000     0.916666666667     0          
O        O      0.070006666667     0.806680000000     0.916666666667     0          
O        O      0.053220000000     0.859943333333     0.916666666667     0          
O        O      0.210240000000     0.666666666667     0.916666666667     0          
O        O      0.263326666667     0.736673333333     0.916666666667     0          
O        O      0.193276666667     0.719886666667     0.916666666667     0          
O        O      0.485506666667     0.111110000000     0.000000000000     0          
O        O      0.456426666667     0.123093333333     0.083333333333     0          
O        O      0.473346666667     0.070006666667     0.083333333333     0          
O        O      0.526610000000     0.140056666667     0.083333333333     0          
O        O      0.374396666667     0.152173333333     0.000000000000     0          
O        O      0.333333333333     0.123093333333     0.083333333333     0          
O        O      0.403340000000     0.140013333333     0.083333333333     0          
O        O      0.386553333333     0.193276666667     0.083333333333     0          
O        O      0.555556666667     0.041063333333     0.000000000000     0          
O        O      0.543573333333     0.000000000000     0.083333333333     0          
O        O      0.596660000000     0.070006666667     0.083333333333     0          
O        O      0.526610000000     0.053220000000     0.083333333333     0          
O        O      0.514493333333     0.222223333333     0.000000000000     0          
O        O      0.543573333333     0.210240000000     0.083333333333     0          
O        O      0.526653333333     0.263326666667     0.083333333333     0          
O        O      0.473390000000     0.193276666667     0.083333333333     0          
O        O      0.625603333333     0.181160000000     0.000000000000     0          
O        O      0.333333333333     0.210240000000     0.083333333333     0          
O        O      0.596660000000     0.193320000000     0.083333333333     0          
O        O      0.613446666667     0.140056666667     0.083333333333     0          
O        O      0.444443333333     0.292270000000     0.000000000000     0          
O        O      0.456426666667     0.000000000000     0.083333333333     0          
O        O      0.403340000000     0.263326666667     0.083333333333     0          
O        O      0.473390000000     0.280113333333     0.083333333333     0          
O        O      0.555556666667     0.181160000000     0.166666666667     0          
O        O      0.374396666667     0.222223333333     0.166666666667     0          
O        O      0.485506666667     0.041063333333     0.166666666667     0          
O        O      0.444443333333     0.152173333333     0.166666666667     0          
O        O      0.625603333333     0.111110000000     0.166666666667     0          
O        O      0.514493333333     0.292270000000     0.166666666667     0          
O        O      0.543573333333     0.210240000000     0.250000000000     0          
O        O      0.526653333333     0.263326666667     0.250000000000     0          
O        O      0.473390000000     0.193276666667     0.250000000000     0          
O        O      0.333333333333     0.210240000000     0.250000000000     0          
O        O      0.596660000000     0.193320000000     0.250000000000     0          
O        O      0.613446666667     0.140056666667     0.250000000000     0          
O        O      0.456426666667     0.000000000000     0.250000000000     0          
O        O      0.403340000000     0.263326666667     0.250000000000     0          
O        O      0.473390000000     0.280113333333     0.250000000000     0          
O        O      0.456426666667     0.123093333333     0.250000000000     0          
O        O      0.473346666667     0.070006666667     0.250000000000     0          
O        O      0.526610000000     0.140056666667     0.250000000000     0          
O        O      0.333333333333     0.123093333333     0.250000000000     0          
O        O      0.403340000000     0.140013333333     0.250000000000     0          
O        O      0.386553333333     0.193276666667     0.250000000000     0          
O        O      0.543573333333     0.000000000000     0.250000000000     0          
O        O      0.596660000000     0.070006666667     0.250000000000     0          
O        O      0.526610000000     0.053220000000     0.250000000000     0          
O        O      0.485506666667     0.111110000000     0.333333333333     0          
O        O      0.456426666667     0.123093333333     0.416666666667     0          
O        O      0.473346666667     0.070006666667     0.416666666667     0          
O        O      0.526610000000     0.140056666667     0.416666666667     0          
O        O      0.374396666667     0.152173333333     0.333333333333     0          
O        O      0.333333333333     0.123093333333     0.416666666667     0          
O        O      0.403340000000     0.140013333333     0.416666666667     0          
O        O      0.386553333333     0.193276666667     0.416666666667     0          
O        O      0.555556666667     0.041063333333     0.333333333333     0          
O        O      0.543573333333     0.000000000000     0.416666666667     0          
O        O      0.596660000000     0.070006666667     0.416666666667     0          
O        O      0.526610000000     0.053220000000     0.416666666667     0          
O        O      0.514493333333     0.222223333333     0.333333333333     0          
O        O      0.543573333333     0.210240000000     0.416666666667     0          
O        O      0.526653333333     0.263326666667     0.416666666667     0          
O        O      0.473390000000     0.193276666667     0.416666666667     0          
O        O      0.625603333333     0.181160000000     0.333333333333     0          
O        O      0.333333333333     0.210240000000     0.416666666667     0          
O        O      0.596660000000     0.193320000000     0.416666666667     0          
O        O      0.613446666667     0.140056666667     0.416666666667     0          
O        O      0.444443333333     0.292270000000     0.333333333333     0          
O        O      0.456426666667     0.000000000000     0.416666666667     0          
O        O      0.403340000000     0.263326666667     0.416666666667     0          
O        O      0.473390000000     0.280113333333     0.416666666667     0          
O        O      0.555556666667     0.181160000000     0.500000000000     0          
O        O      0.374396666667     0.222223333333     0.500000000000     0          
O        O      0.485506666667     0.041063333333     0.500000000000     0          
O        O      0.444443333333     0.152173333333     0.500000000000     0          
O        O      0.625603333333     0.111110000000     0.500000000000     0          
O        O      0.514493333333     0.292270000000     0.500000000000     0          
O        O      0.543573333333     0.210240000000     0.583333333333     0          
O        O      0.526653333333     0.263326666667     0.583333333333     0          
O        O      0.473390000000     0.193276666667     0.583333333333     0          
O        O      0.333333333333     0.210240000000     0.583333333333     0          
O        O      0.596660000000     0.193320000000     0.583333333333     0          
O        O      0.613446666667     0.140056666667     0.583333333333     0          
O        O      0.456426666667     0.000000000000     0.583333333333     0          
O        O      0.403340000000     0.263326666667     0.583333333333     0          
O        O      0.473390000000     0.280113333333     0.583333333333     0          
O        O      0.456426666667     0.123093333333     0.583333333333     0          
O        O      0.473346666667     0.070006666667     0.583333333333     0          
O        O      0.526610000000     0.140056666667     0.583333333333     0          
O        O      0.333333333333     0.123093333333     0.583333333333     0          
O        O      0.403340000000     0.140013333333     0.583333333333     0          
O        O      0.386553333333     0.193276666667     0.583333333333     0          
O        O      0.543573333333     0.000000000000     0.583333333333     0          
O        O      0.596660000000     0.070006666667     0.583333333333     0          
O        O      0.526610000000     0.053220000000     0.583333333333     0          
O        O      0.485506666667     0.111110000000     0.666666666667     0          
O        O      0.456426666667     0.123093333333     0.750000000000     0          
O        O      0.473346666667     0.070006666667     0.750000000000     0          
O        O      0.526610000000     0.140056666667     0.750000000000     0          
O        O      0.374396666667     0.152173333333     0.666666666667     0          
O        O      0.333333333333     0.123093333333     0.750000000000     0          
O        O      0.403340000000     0.140013333333     0.750000000000     0          
O        O      0.386553333333     0.193276666667     0.750000000000     0          
O        O      0.555556666667     0.041063333333     0.666666666667     0          
O        O      0.543573333333     0.000000000000     0.750000000000     0          
O        O      0.596660000000     0.070006666667     0.750000000000     0          
O        O      0.526610000000     0.053220000000     0.750000000000     0          
O        O      0.514493333333     0.222223333333     0.666666666667     0          
O        O      0.543573333333     0.210240000000     0.750000000000     0          
O        O      0.526653333333     0.263326666667     0.750000000000     0          
O        O      0.473390000000     0.193276666667     0.750000000000     0          
O        O      0.625603333333     0.181160000000     0.666666666667     0          
O        O      0.333333333333     0.210240000000     0.750000000000     0          
O        O      0.596660000000     0.193320000000     0.750000000000     0          
O        O      0.613446666667     0.140056666667     0.750000000000     0          
O        O      0.444443333333     0.292270000000     0.666666666667     0          
O        O      0.456426666667     0.000000000000     0.750000000000     0          
O        O      0.403340000000     0.263326666667     0.750000000000     0          
O        O      0.473390000000     0.280113333333     0.750000000000     0          
O        O      0.555556666667     0.181160000000     0.833333333333     0          
O        O      0.374396666667     0.222223333333     0.833333333333     0          
O        O      0.485506666667     0.041063333333     0.833333333333     0          
O        O      0.444443333333     0.152173333333     0.833333333333     0          
O        O      0.625603333333     0.111110000000     0.833333333333     0          
O        O      0.514493333333     0.292270000000     0.833333333333     0          
O        O      0.543573333333     0.210240000000     0.916666666667     0          
O        O      0.526653333333     0.263326666667     0.916666666667     0          
O        O      0.473390000000     0.193276666667     0.916666666667     0          
O        O      0.333333333333     0.210240000000     0.916666666667     0          
O        O      0.596660000000     0.193320000000     0.916666666667     0          
O        O      0.613446666667     0.140056666667     0.916666666667     0          
O        O      0.456426666667     0.000000000000     0.916666666667     0          
O        O      0.403340000000     0.263326666667     0.916666666667     0          
O        O      0.473390000000     0.280113333333     0.916666666667     0          
O        O      0.456426666667     0.123093333333     0.916666666667     0          
O        O      0.473346666667     0.070006666667     0.916666666667     0          
O        O      0.526610000000     0.140056666667     0.916666666667     0          
O        O      0.333333333333     0.123093333333     0.916666666667     0          
O        O      0.403340000000     0.140013333333     0.916666666667     0          
O        O      0.386553333333     0.193276666667     0.916666666667     0          
O        O      0.543573333333     0.000000000000     0.916666666667     0          
O        O      0.596660000000     0.070006666667     0.916666666667     0          
O        O      0.526610000000     0.053220000000     0.916666666667     0          
O        O      0.485506666667     0.444443333333     0.000000000000     0          
O        O      0.456426666667     0.456426666667     0.083333333333     0          
O        O      0.473346666667     0.403340000000     0.083333333333     0          
O        O      0.526610000000     0.473390000000     0.083333333333     0          
O        O      0.374396666667     0.485506666667     0.000000000000     0          
O        O      0.333333333333     0.456426666667     0.083333333333     0          
O        O      0.403340000000     0.473346666667     0.083333333333     0          
O        O      0.386553333333     0.526610000000     0.083333333333     0          
O        O      0.555556666667     0.374396666667     0.000000000000     0          
O        O      0.543573333333     0.333333333333     0.083333333333     0          
O        O      0.596660000000     0.403340000000     0.083333333333     0          
O        O      0.526610000000     0.386553333333     0.083333333333     0          
O        O      0.514493333333     0.555556666667     0.000000000000     0          
O        O      0.543573333333     0.543573333333     0.083333333333     0          
O        O      0.526653333333     0.596660000000     0.083333333333     0          
O        O      0.473390000000     0.526610000000     0.083333333333     0          
O        O      0.625603333333     0.514493333333     0.000000000000     0          
O        O      0.333333333333     0.543573333333     0.083333333333     0          
O        O      0.596660000000     0.526653333333     0.083333333333     0          
O        O      0.613446666667     0.473390000000     0.083333333333     0          
O        O      0.444443333333     0.625603333333     0.000000000000     0          
O        O      0.456426666667     0.333333333333     0.083333333333     0          
O        O      0.403340000000     0.596660000000     0.083333333333     0          
O        O      0.473390000000     0.613446666667     0.083333333333     0          
O        O      0.555556666667     0.514493333333     0.166666666667     0          
O        O      0.374396666667     0.555556666667     0.166666666667     0          
O        O      0.485506666667     0.374396666667     0.166666666667     0          
O        O      0.444443333333     0.485506666667     0.166666666667     0          
O        O      0.625603333333     0.444443333333     0.166666666667     0          
O        O      0.514493333333     0.625603333333     0.166666666667     0          
O        O      0.543573333333     0.543573333333     0.250000000000     0          
O        O      0.526653333333     0.596660000000     0.250000000000     0          
O        O      0.473390000000     0.526610000000     0.250000000000     0          
O        O      0.333333333333     0.543573333333     0.250000000000     0          
O        O      0.596660000000     0.526653333333     0.250000000000     0          
O        O      0.613446666667     0.473390000000     0.250000000000     0          
O        O      0.456426666667     0.333333333333     0.250000000000     0          
O        O      0.403340000000     0.596660000000     0.250000000000     0          
O        O      0.473390000000     0.613446666667     0.250000000000     0          
O        O      0.456426666667     0.456426666667     0.250000000000     0          
O        O      0.473346666667     0.403340000000     0.250000000000     0          
O        O      0.526610000000     0.473390000000     0.250000000000     0          
O        O      0.333333333333     0.456426666667     0.250000000000     0          
O        O      0.403340000000     0.473346666667     0.250000000000     0          
O        O      0.386553333333     0.526610000000     0.250000000000     0          
O        O      0.543573333333     0.333333333333     0.250000000000     0          
O        O      0.596660000000     0.403340000000     0.250000000000     0          
O        O      0.526610000000     0.386553333333     0.250000000000     0          
O        O      0.485506666667     0.444443333333     0.333333333333     0          
O        O      0.456426666667     0.456426666667     0.416666666667     0          
O        O      0.473346666667     0.403340000000     0.416666666667     0          
O        O      0.526610000000     0.473390000000     0.416666666667     0          
O        O      0.374396666667     0.485506666667     0.333333333333     0          
O        O      0.333333333333     0.456426666667     0.416666666667     0          
O        O      0.403340000000     0.473346666667     0.416666666667     0          
O        O      0.386553333333     0.526610000000     0.416666666667     0          
O        O      0.555556666667     0.374396666667     0.333333333333     0          
O        O      0.543573333333     0.333333333333     0.416666666667     0          
O        O      0.596660000000     0.403340000000     0.416666666667     0          
O        O      0.526610000000     0.386553333333     0.416666666667     0          
O        O      0.514493333333     0.555556666667     0.333333333333     0          
O        O      0.543573333333     0.543573333333     0.416666666667     0          
O        O      0.526653333333     0.596660000000     0.416666666667     0          
O        O      0.473390000000     0.526610000000     0.416666666667     0          
O        O      0.625603333333     0.514493333333     0.333333333333     0          
O        O      0.333333333333     0.543573333333     0.416666666667     0          
O        O      0.596660000000     0.526653333333     0.416666666667     0          
O        O      0.613446666667     0.473390000000     0.416666666667     0          
O        O      0.444443333333     0.625603333333     0.333333333333     0          
O        O      0.456426666667     0.333333333333     0.416666666667     0          
O        O      0.403340000000     0.596660000000     0.416666666667     0          
O        O      0.473390000000     0.613446666667     0.416666666667     0          
O        O      0.555556666667     0.514493333333     0.500000000000     0          
O        O      0.374396666667     0.555556666667     0.500000000000     0          
O        O      0.485506666667     0.374396666667     0.500000000000     0          
O        O      0.444443333333     0.485506666667     0.500000000000     0          
O        O      0.625603333333     0.444443333333     0.500000000000     0          
O        O      0.514493333333     0.625603333333     0.500000000000     0          
O        O      0.543573333333     0.543573333333     0.583333333333     0          
O        O      0.526653333333     0.596660000000     0.583333333333     0          
O        O      0.473390000000     0.526610000000     0.583333333333     0          
O        O      0.333333333333     0.543573333333     0.583333333333     0          
O        O      0.596660000000     0.526653333333     0.583333333333     0          
O        O      0.613446666667     0.473390000000     0.583333333333     0          
O        O      0.456426666667     0.333333333333     0.583333333333     0          
O        O      0.403340000000     0.596660000000     0.583333333333     0          
O        O      0.473390000000     0.613446666667     0.583333333333     0          
O        O      0.456426666667     0.456426666667     0.583333333333     0          
O        O      0.473346666667     0.403340000000     0.583333333333     0          
O        O      0.526610000000     0.473390000000     0.583333333333     0          
O        O      0.333333333333     0.456426666667     0.583333333333     0          
O        O      0.403340000000     0.473346666667     0.583333333333     0          
O        O      0.386553333333     0.526610000000     0.583333333333     0          
O        O      0.543573333333     0.333333333333     0.583333333333     0          
O        O      0.596660000000     0.403340000000     0.583333333333     0          
O        O      0.526610000000     0.386553333333     0.583333333333     0          
O        O      0.485506666667     0.444443333333     0.666666666667     0          
O        O      0.456426666667     0.456426666667     0.750000000000     0          
O        O      0.473346666667     0.403340000000     0.750000000000     0          
O        O      0.526610000000     0.473390000000     0.750000000000     0          
O        O      0.374396666667     0.485506666667     0.666666666667     0          
O        O      0.333333333333     0.456426666667     0.750000000000     0          
O        O      0.403340000000     0.473346666667     0.750000000000     0          
O        O      0.386553333333     0.526610000000     0.750000000000     0          
O        O      0.555556666667     0.374396666667     0.666666666667     0          
O        O      0.543573333333     0.333333333333     0.750000000000     0          
O        O      0.596660000000     0.403340000000     0.750000000000     0          
O        O      0.526610000000     0.386553333333     0.750000000000     0          
O        O      0.514493333333     0.555556666667     0.666666666667     0          
O        O      0.543573333333     0.543573333333     0.750000000000     0          
O        O      0.526653333333     0.596660000000     0.750000000000     0          
O        O      0.473390000000     0.526610000000     0.750000000000     0          
O        O      0.625603333333     0.514493333333     0.666666666667     0          
O        O      0.333333333333     0.543573333333     0.750000000000     0          
O        O      0.596660000000     0.526653333333     0.750000000000     0          
O        O      0.613446666667     0.473390000000     0.750000000000     0          
O        O      0.444443333333     0.625603333333     0.666666666667     0          
O        O      0.456426666667     0.333333333333     0.750000000000     0          
O        O      0.403340000000     0.596660000000     0.750000000000     0          
O        O      0.473390000000     0.613446666667     0.750000000000     0          
O        O      0.555556666667     0.514493333333     0.833333333333     0          
O        O      0.374396666667     0.555556666667     0.833333333333     0          
O        O      0.485506666667     0.374396666667     0.833333333333     0          
O        O      0.444443333333     0.485506666667     0.833333333333     0          
O        O      0.625603333333     0.444443333333     0.833333333333     0          
O        O      0.514493333333     0.625603333333     0.833333333333     0          
O        O      0.543573333333     0.543573333333     0.916666666667     0          
O        O      0.526653333333     0.596660000000     0.916666666667     0          
O        O      0.473390000000     0.526610000000     0.916666666667     0          
O        O      0.333333333333     0.543573333333     0.916666666667     0          
O        O      0.596660000000     0.526653333333     0.916666666667     0          
O        O      0.613446666667     0.473390000000     0.916666666667     0          
O        O      0.456426666667     0.333333333333     0.916666666667     0          
O        O      0.403340000000     0.596660000000     0.916666666667     0          
O        O      0.473390000000     0.613446666667     0.916666666667     0          
O        O      0.456426666667     0.456426666667     0.916666666667     0          
O        O      0.473346666667     0.403340000000     0.916666666667     0          
O        O      0.526610000000     0.473390000000     0.916666666667     0          
O        O      0.333333333333     0.456426666667     0.916666666667     0          
O        O      0.403340000000     0.473346666667     0.916666666667     0          
O        O      0.386553333333     0.526610000000     0.916666666667     0          
O        O      0.543573333333     0.333333333333     0.916666666667     0          
O        O      0.596660000000     0.403340000000     0.916666666667     0          
O        O      0.526610000000     0.386553333333     0.916666666667     0          
O        O      0.485506666667     0.777776666667     0.000000000000     0          
O        O      0.456426666667     0.789760000000     0.083333333333     0          
O        O      0.473346666667     0.736673333333     0.083333333333     0          
O        O      0.526610000000     0.806723333333     0.083333333333     0          
O        O      0.374396666667     0.818840000000     0.000000000000     0          
O        O      0.333333333333     0.789760000000     0.083333333333     0          
O        O      0.403340000000     0.806680000000     0.083333333333     0          
O        O      0.386553333333     0.859943333333     0.083333333333     0          
O        O      0.555556666667     0.707730000000     0.000000000000     0          
O        O      0.543573333333     0.666666666667     0.083333333333     0          
O        O      0.596660000000     0.736673333333     0.083333333333     0          
O        O      0.526610000000     0.719886666667     0.083333333333     0          
O        O      0.514493333333     0.888890000000     0.000000000000     0          
O        O      0.543573333333     0.876906666667     0.083333333333     0          
O        O      0.526653333333     0.929993333333     0.083333333333     0          
O        O      0.473390000000     0.859943333333     0.083333333333     0          
O        O      0.625603333333     0.847826666667     0.000000000000     0          
O        O      0.333333333333     0.876906666667     0.083333333333     0          
O        O      0.596660000000     0.859986666667     0.083333333333     0          
O        O      0.613446666667     0.806723333333     0.083333333333     0          
O        O      0.444443333333     0.958936666667     0.000000000000     0          
O        O      0.456426666667     0.666666666667     0.083333333333     0          
O        O      0.403340000000     0.929993333333     0.083333333333     0          
O        O      0.473390000000     0.946780000000     0.083333333333     0          
O        O      0.555556666667     0.847826666667     0.166666666667     0          
O        O      0.374396666667     0.888890000000     0.166666666667     0          
O        O      0.485506666667     0.707730000000     0.166666666667     0          
O        O      0.444443333333     0.818840000000     0.166666666667     0          
O        O      0.625603333333     0.777776666667     0.166666666667     0          
O        O      0.514493333333     0.958936666667     0.166666666667     0          
O        O      0.543573333333     0.876906666667     0.250000000000     0          
O        O      0.526653333333     0.929993333333     0.250000000000     0          
O        O      0.473390000000     0.859943333333     0.250000000000     0          
O        O      0.333333333333     0.876906666667     0.250000000000     0          
O        O      0.596660000000     0.859986666667     0.250000000000     0          
O        O      0.613446666667     0.806723333333     0.250000000000     0          
O        O      0.456426666667     0.666666666667     0.250000000000     0          
O        O      0.403340000000     0.929993333333     0.250000000000     0          
O        O      0.473390000000     0.946780000000     0.250000000000     0          
O        O      0.456426666667     0.789760000000     0.250000000000     0          
O        O      0.473346666667     0.736673333333     0.250000000000     0          
O        O      0.526610000000     0.806723333333     0.250000000000     0          
O        O      0.333333333333     0.789760000000     0.250000000000     0          
O        O      0.403340000000     0.806680000000     0.250000000000     0          
O        O      0.386553333333     0.859943333333     0.250000000000     0          
O        O      0.543573333333     0.666666666667     0.250000000000     0          
O        O      0.596660000000     0.736673333333     0.250000000000     0          
O        O      0.526610000000     0.719886666667     0.250000000000     0          
O        O      0.485506666667     0.777776666667     0.333333333333     0          
O        O      0.456426666667     0.789760000000     0.416666666667     0          
O        O      0.473346666667     0.736673333333     0.416666666667     0          
O        O      0.526610000000     0.806723333333     0.416666666667     0          
O        O      0.374396666667     0.818840000000     0.333333333333     0          
O        O      0.333333333333     0.789760000000     0.416666666667     0          
O        O      0.403340000000     0.806680000000     0.416666666667     0          
O        O      0.386553333333     0.859943333333     0.416666666667     0          
O        O      0.555556666667     0.707730000000     0.333333333333     0          
O        O      0.543573333333     0.666666666667     0.416666666667     0          
O        O      0.596660000000     0.736673333333     0.416666666667     0          
O        O      0.526610000000     0.719886666667     0.416666666667     0          
O        O      0.514493333333     0.888890000000     0.333333333333     0          
O        O      0.543573333333     0.876906666667     0.416666666667     0          
O        O      0.526653333333     0.929993333333     0.416666666667     0          
O        O      0.473390000000     0.859943333333     0.416666666667     0          
O        O      0.625603333333     0.847826666667     0.333333333333     0          
O        O      0.333333333333     0.876906666667     0.416666666667     0          
O        O      0.596660000000     0.859986666667     0.416666666667     0          
O        O      0.613446666667     0.806723333333     0.416666666667     0          
O        O      0.444443333333     0.958936666667     0.333333333333     0          
O        O      0.456426666667     0.666666666667     0.416666666667     0          
O        O      0.403340000000     0.929993333333     0.416666666667     0          
O        O      0.473390000000     0.946780000000     0.416666666667     0          
O        O      0.555556666667     0.847826666667     0.500000000000     0          
O        O      0.374396666667     0.888890000000     0.500000000000     0          
O        O      0.485506666667     0.707730000000     0.500000000000     0          
O        O      0.444443333333     0.818840000000     0.500000000000     0          
O        O      0.625603333333     0.777776666667     0.500000000000     0          
O        O      0.514493333333     0.958936666667     0.500000000000     0          
O        O      0.543573333333     0.876906666667     0.583333333333     0          
O        O      0.526653333333     0.929993333333     0.583333333333     0          
O        O      0.473390000000     0.859943333333     0.583333333333     0          
O        O      0.333333333333     0.876906666667     0.583333333333     0          
O        O      0.596660000000     0.859986666667     0.583333333333     0          
O        O      0.613446666667     0.806723333333     0.583333333333     0          
O        O      0.456426666667     0.666666666667     0.583333333333     0          
O        O      0.403340000000     0.929993333333     0.583333333333     0          
O        O      0.473390000000     0.946780000000     0.583333333333     0          
O        O      0.456426666667     0.789760000000     0.583333333333     0          
O        O      0.473346666667     0.736673333333     0.583333333333     0          
O        O      0.526610000000     0.806723333333     0.583333333333     0          
O        O      0.333333333333     0.789760000000     0.583333333333     0          
O        O      0.403340000000     0.806680000000     0.583333333333     0          
O        O      0.386553333333     0.859943333333     0.583333333333     0          
O        O      0.543573333333     0.666666666667     0.583333333333     0          
O        O      0.596660000000     0.736673333333     0.583333333333     0          
O        O      0.526610000000     0.719886666667     0.583333333333     0          
O        O      0.485506666667     0.777776666667     0.666666666667     0          
O        O      0.456426666667     0.789760000000     0.750000000000     0          
O        O      0.473346666667     0.736673333333     0.750000000000     0          
O        O      0.526610000000     0.806723333333     0.750000000000     0          
O        O      0.374396666667     0.818840000000     0.666666666667     0          
O        O      0.333333333333     0.789760000000     0.750000000000     0          
O        O      0.403340000000     0.806680000000     0.750000000000     0          
O        O      0.386553333333     0.859943333333     0.750000000000     0          
O        O      0.555556666667     0.707730000000     0.666666666667     0          
O        O      0.543573333333     0.666666666667     0.750000000000     0          
O        O      0.596660000000     0.736673333333     0.750000000000     0          
O        O      0.526610000000     0.719886666667     0.750000000000     0          
O        O      0.514493333333     0.888890000000     0.666666666667     0          
O        O      0.543573333333     0.876906666667     0.750000000000     0          
O        O      0.526653333333     0.929993333333     0.750000000000     0          
O        O      0.473390000000     0.859943333333     0.750000000000     0          
O        O      0.625603333333     0.847826666667     0.666666666667     0          
O        O      0.333333333333     0.876906666667     0.750000000000     0          
O        O      0.596660000000     0.859986666667     0.750000000000     0          
O        O      0.613446666667     0.806723333333     0.750000000000     0          
O        O      0.444443333333     0.958936666667     0.666666666667     0          
O        O      0.456426666667     0.666666666667     0.750000000000     0          
O        O      0.403340000000     0.929993333333     0.750000000000     0          
O        O      0.473390000000     0.946780000000     0.750000000000     0          
O        O      0.555556666667     0.847826666667     0.833333333333     0          
O        O      0.374396666667     0.888890000000     0.833333333333     0          
O        O      0.485506666667     0.707730000000     0.833333333333     0          
O        O      0.444443333333     0.818840000000     0.833333333333     0          
O        O      0.625603333333     0.777776666667     0.833333333333     0          
O        O      0.514493333333     0.958936666667     0.833333333333     0          
O        O      0.543573333333     0.876906666667     0.916666666667     0          
O        O      0.526653333333     0.929993333333     0.916666666667     0          
O        O      0.473390000000     0.859943333333     0.916666666667     0          
O        O      0.333333333333     0.876906666667     0.916666666667     0          
O        O      0.596660000000     0.859986666667     0.916666666667     0          
O        O      0.613446666667     0.806723333333     0.916666666667     0          
O        O      0.456426666667     0.666666666667     0.916666666667     0          
O        O      0.403340000000     0.929993333333     0.916666666667     0          
O        O      0.473390000000     0.946780000000     0.916666666667     0          
O        O      0.456426666667     0.789760000000     0.916666666667     0          
O        O      0.473346666667     0.736673333333     0.916666666667     0          
O        O      0.526610000000     0.806723333333     0.916666666667     0          
O        O      0.333333333333     0.789760000000     0.916666666667     0          
O        O      0.403340000000     0.806680000000     0.916666666667     0          
O        O      0.386553333333     0.859943333333     0.916666666667     0          
O        O      0.543573333333     0.666666666667     0.916666666667     0          
O        O      0.596660000000     0.736673333333     0.916666666667     0          
O        O      0.526610000000     0.719886666667     0.916666666667     0          
O        O      0.818840000000     0.111110000000     0.000000000000     0          
O        O      0.789760000000     0.123093333333     0.083333333333     0          
O        O      0.806680000000     0.070006666667     0.083333333333     0          
O        O      0.859943333333     0.140056666667     0.083333333333     0          
O        O      0.707730000000     0.152173333333     0.000000000000     0          
O        O      0.666666666667     0.123093333333     0.083333333333     0          
O        O      0.736673333333     0.140013333333     0.083333333333     0          
O        O      0.719886666667     0.193276666667     0.083333333333     0          
O        O      0.888890000000     0.041063333333     0.000000000000     0          
O        O      0.876906666667     0.000000000000     0.083333333333     0          
O        O      0.929993333333     0.070006666667     0.083333333333     0          
O        O      0.859943333333     0.053220000000     0.083333333333     0          
O        O      0.847826666667     0.222223333333     0.000000000000     0          
O        O      0.876906666667     0.210240000000     0.083333333333     0          
O        O      0.859986666667     0.263326666667     0.083333333333     0          
O        O      0.806723333333     0.193276666667     0.083333333333     0          
O        O      0.958936666667     0.181160000000     0.000000000000     0          
O        O      0.666666666667     0.210240000000     0.083333333333     0          
O        O      0.929993333333     0.193320000000     0.083333333333     0          
O        O      0.946780000000     0.140056666667     0.083333333333     0          
O        O      0.777776666667     0.292270000000     0.000000000000     0          
O        O      0.789760000000     0.000000000000     0.083333333333     0          
O        O      0.736673333333     0.263326666667     0.083333333333     0          
O        O      0.806723333333     0.280113333333     0.083333333333     0          
O        O      0.888890000000     0.181160000000     0.166666666667     0          
O        O      0.707730000000     0.222223333333     0.166666666667     0          
O        O      0.818840000000     0.041063333333     0.166666666667     0          
O        O      0.777776666667     0.152173333333     0.166666666667     0          
O        O      0.958936666667     0.111110000000     0.166666666667     0          
O        O      0.847826666667     0.292270000000     0.166666666667     0          
O        O      0.876906666667     0.210240000000     0.250000000000     0          
O        O      0.859986666667     0.263326666667     0.250000000000     0          
O        O      0.806723333333     0.193276666667     0.250000000000     0          
O        O      0.666666666667     0.210240000000     0.250000000000     0          
O        O      0.929993333333     0.193320000000     0.250000000000     0          
O        O      0.946780000000     0.140056666667     0.250000000000     0          
O        O      0.789760000000     0.000000000000     0.250000000000     0          
O        O      0.736673333333     0.263326666667     0.250000000000     0          
O        O      0.806723333333     0.280113333333     0.250000000000     0          
O        O      0.789760000000     0.123093333333     0.250000000000     0          
O        O      0.806680000000     0.070006666667     0.250000000000     0          
O        O      0.859943333333     0.140056666667     0.250000000000     0          
O        O      0.666666666667     0.123093333333     0.250000000000     0          
O        O      0.736673333333     0.140013333333     0.250000000000     0          
O        O      0.719886666667     0.193276666667     0.250000000000     0          
O        O      0.876906666667     0.000000000000     0.250000000000     0          
O        O      0.929993333333     0.070006666667     0.250000000000     0          
O        O      0.859943333333     0.053220000000     0.250000000000     0          
O        O      0.818840000000     0.111110000000     0.333333333333     0          
O        O      0.789760000000     0.123093333333     0.416666666667     0          
O        O      0.806680000000     0.070006666667     0.416666666667     0          
O        O      0.859943333333     0.140056666667     0.416666666667     0          
O        O      0.707730000000     0.152173333333     0.333333333333     0          
O        O      0.666666666667     0.123093333333     0.416666666667     0          
O        O      0.736673333333     0.140013333333     0.416666666667     0          
O        O      0.719886666667     0.193276666667     0.416666666667     0          
O        O      0.888890000000     0.041063333333     0.333333333333     0          
O        O      0.876906666667     0.000000000000     0.416666666667     0          
O        O      0.929993333333     0.070006666667     0.416666666667     0          
O        O      0.859943333333     0.053220000000     0.416666666667     0          
O        O      0.847826666667     0.222223333333     0.333333333333     0          
O        O      0.876906666667     0.210240000000     0.416666666667     0          
O        O      0.859986666667     0.263326666667     0.416666666667     0          
O        O      0.806723333333     0.193276666667     0.416666666667     0          
O        O      0.958936666667     0.181160000000     0.333333333333     0          
O        O      0.666666666667     0.210240000000     0.416666666667     0          
O        O      0.929993333333     0.193320000000     0.416666666667     0          
O        O      0.946780000000     0.140056666667     0.416666666667     0          
O        O      0.777776666667     0.292270000000     0.333333333333     0          
O        O      0.789760000000     0.000000000000     0.416666666667     0          
O        O      0.736673333333     0.263326666667     0.416666666667     0          
O        O      0.806723333333     0.280113333333     0.416666666667     0          
O        O      0.888890000000     0.181160000000     0.500000000000     0          
O        O      0.707730000000     0.222223333333     0.500000000000     0          
O        O      0.818840000000     0.041063333333     0.500000000000     0          
O        O      0.777776666667     0.152173333333     0.500000000000     0          
O        O      0.958936666667     0.111110000000     0.500000000000     0          
O        O      0.847826666667     0.292270000000     0.500000000000     0          
O        O      0.876906666667     0.210240000000     0.583333333333     0          
O        O      0.859986666667     0.263326666667     0.583333333333     0          
O        O      0.806723333333     0.193276666667     0.583333333333     0          
O        O      0.666666666667     0.210240000000     0.583333333333     0          
O        O      0.929993333333     0.193320000000     0.583333333333     0          
O        O      0.946780000000     0.140056666667     0.583333333333     0          
O        O      0.789760000000     0.000000000000     0.583333333333     0          
O        O      0.736673333333     0.263326666667     0.583333333333     0          
O        O      0.806723333333     0.280113333333     0.583333333333     0          
O        O      0.789760000000     0.123093333333     0.583333333333     0          
O        O      0.806680000000     0.070006666667     0.583333333333     0          
O        O      0.859943333333     0.140056666667     0.583333333333     0          
O        O      0.666666666667     0.123093333333     0.583333333333     0          
O        O      0.736673333333     0.140013333333     0.583333333333     0          
O        O      0.719886666667     0.193276666667     0.583333333333     0          
O        O      0.876906666667     0.000000000000     0.583333333333     0          
O        O      0.929993333333     0.070006666667     0.583333333333     0          
O        O      0.859943333333     0.053220000000     0.583333333333     0          
O        O      0.818840000000     0.111110000000     0.666666666667     0          
O        O      0.789760000000     0.123093333333     0.750000000000     0          
O        O      0.806680000000     0.070006666667     0.750000000000     0          
O        O      0.859943333333     0.140056666667     0.750000000000     0          
O        O      0.707730000000     0.152173333333     0.666666666667     0          
O        O      0.666666666667     0.123093333333     0.750000000000     0          
O        O      0.736673333333     0.140013333333     0.750000000000     0          
O        O      0.719886666667     0.193276666667     0.750000000000     0          
O        O      0.888890000000     0.041063333333     0.666666666667     0          
O        O      0.876906666667     0.000000000000     0.750000000000     0          
O        O      0.929993333333     0.070006666667     0.750000000000     0          
O        O      0.859943333333     0.053220000000     0.750000000000     0          
O        O      0.847826666667     0.222223333333     0.666666666667     0          
O        O      0.876906666667     0.210240000000     0.750000000000     0          
O        O      0.859986666667     0.263326666667     0.750000000000     0          
O        O      0.806723333333     0.193276666667     0.750000000000     0          
O        O      0.958936666667     0.181160000000     0.666666666667     0          
O        O      0.666666666667     0.210240000000     0.750000000000     0          
O        O      0.929993333333     0.193320000000     0.750000000000     0          
O        O      0.946780000000     0.140056666667     0.750000000000     0          
O        O      0.777776666667     0.292270000000     0.666666666667     0          
O        O      0.789760000000     0.000000000000     0.750000000000     0          
O        O      0.736673333333     0.263326666667     0.750000000000     0          
O        O      0.806723333333     0.280113333333     0.750000000000     0          
O        O      0.888890000000     0.181160000000     0.833333333333     0          
O        O      0.707730000000     0.222223333333     0.833333333333     0          
O        O      0.818840000000     0.041063333333     0.833333333333     0          
O        O      0.777776666667     0.152173333333     0.833333333333     0          
O        O      0.958936666667     0.111110000000     0.833333333333     0          
O        O      0.847826666667     0.292270000000     0.833333333333     0          
O        O      0.876906666667     0.210240000000     0.916666666667     0          
O        O      0.859986666667     0.263326666667     0.916666666667     0          
O        O      0.806723333333     0.193276666667     0.916666666667     0          
O        O      0.666666666667     0.210240000000     0.916666666667     0          
O        O      0.929993333333     0.193320000000     0.916666666667     0          
O        O      0.946780000000     0.140056666667     0.916666666667     0          
O        O      0.789760000000     0.000000000000     0.916666666667     0          
O        O      0.736673333333     0.263326666667     0.916666666667     0          
O        O      0.806723333333     0.280113333333     0.916666666667     0          
O        O      0.789760000000     0.123093333333     0.916666666667     0          
O        O      0.806680000000     0.070006666667     0.916666666667     0          
O        O      0.859943333333     0.140056666667     0.916666666667     0          
O        O      0.666666666667     0.123093333333     0.916666666667     0          
O        O      0.736673333333     0.140013333333     0.916666666667     0          
O        O      0.719886666667     0.193276666667     0.916666666667     0          
O        O      0.876906666667     0.000000000000     0.916666666667     0          
O        O      0.929993333333     0.070006666667     0.916666666667     0          
O        O      0.859943333333     0.053220000000     0.916666666667     0          
O        O      0.818840000000     0.444443333333     0.000000000000     0          
O        O      0.789760000000     0.456426666667     0.083333333333     0          
O        O      0.806680000000     0.403340000000     0.083333333333     0          
O        O      0.859943333333     0.473390000000     0.083333333333     0          
O        O      0.707730000000     0.485506666667     0.000000000000     0          
O        O      0.666666666667     0.456426666667     0.083333333333     0          
O        O      0.736673333333     0.473346666667     0.083333333333     0          
O        O      0.719886666667     0.526610000000     0.083333333333     0          
O        O      0.888890000000     0.374396666667     0.000000000000     0          
O        O      0.876906666667     0.333333333333     0.083333333333     0          
O        O      0.929993333333     0.403340000000     0.083333333333     0          
O        O      0.859943333333     0.386553333333     0.083333333333     0          
O        O      0.847826666667     0.555556666667     0.000000000000     0          
O        O      0.876906666667     0.543573333333     0.083333333333     0          
O        O      0.859986666667     0.596660000000     0.083333333333     0          
O        O      0.806723333333     0.526610000000     0.083333333333     0          
O        O      0.958936666667     0.514493333333     0.000000000000     0          
O        O      0.666666666667     0.543573333333     0.083333333333     0          
O        O      0.929993333333     0.526653333333     0.083333333333     0          
O        O      0.946780000000     0.473390000000     0.083333333333     0          
O        O      0.777776666667     0.625603333333     0.000000000000     0          
O        O      0.789760000000     0.333333333333     0.083333333333     0          
O        O      0.736673333333     0.596660000000     0.083333333333     0          
O        O      0.806723333333     0.613446666667     0.083333333333     0          
O        O      0.888890000000     0.514493333333     0.166666666667     0          
O        O      0.707730000000     0.555556666667     0.166666666667     0          
O        O      0.818840000000     0.374396666667     0.166666666667     0          
O        O      0.777776666667     0.485506666667     0.166666666667     0          
O        O      0.958936666667     0.444443333333     0.166666666667     0          
O        O      0.847826666667     0.625603333333     0.166666666667     0          
O        O      0.876906666667     0.543573333333     0.250000000000     0          
O        O      0.859986666667     0.596660000000     0.250000000000     0          
O        O      0.806723333333     0.526610000000     0.250000000000     0          
O        O      0.666666666667     0.543573333333     0.250000000000     0          
O        O      0.929993333333     0.526653333333     0.250000000000     0          
O        O      0.946780000000     0.473390000000     0.250000000000     0          
O        O      0.789760000000     0.333333333333     0.250000000000     0          
O        O      0.736673333333     0.596660000000     0.250000000000     0          
O        O      0.806723333333     0.613446666667     0.250000000000     0          
O        O      0.789760000000     0.456426666667     0.250000000000     0          
O        O      0.806680000000     0.403340000000     0.250000000000     0          
O        O      0.859943333333     0.473390000000     0.250000000000     0          
O        O      0.666666666667     0.456426666667     0.250000000000     0          
O        O      0.736673333333     0.473346666667     0.250000000000     0          
O        O      0.719886666667     0.526610000000     0.250000000000     0          
O        O      0.876906666667     0.333333333333     0.250000000000     0          
O        O      0.929993333333     0.403340000000     0.250000000000     0          
O        O      0.859943333333     0.386553333333     0.250000000000     0          
O        O      0.818840000000     0.444443333333     0.333333333333     0          
O        O      0.789760000000     0.456426666667     0.416666666667     0          
O        O      0.806680000000     0.403340000000     0.416666666667     0          
O        O      0.859943333333     0.473390000000     0.416666666667     0          
O        O      0.707730000000     0.485506666667     0.333333333333     0          
O        O      0.666666666667     0.456426666667     0.416666666667     0          
O        O      0.736673333333     0.473346666667     0.416666666667     0          
O        O      0.719886666667     0.526610000000     0.416666666667     0          
O        O      0.888890000000     0.374396666667     0.333333333333     0          
O        O      0.876906666667     0.333333333333     0.416666666667     0          
O        O      0.929993333333     0.403340000000     0.416666666667     0          
O        O      0.859943333333     0.386553333333     0.416666666667     0          
O        O      0.847826666667     0.555556666667     0.333333333333     0          
O        O      0.876906666667     0.543573333333     0.416666666667     0          
O        O      0.859986666667     0.596660000000     0.416666666667     0          
O        O      0.806723333333     0.526610000000     0.416666666667     0          
O        O      0.958936666667     0.514493333333     0.333333333333     0          
O        O      0.666666666667     0.543573333333     0.416666666667     0          
O        O      0.929993333333     0.526653333333     0.416666666667     0          
O        O      0.946780000000     0.473390000000     0.416666666667     0          
O        O      0.777776666667     0.625603333333     0.333333333333     0          
O        O      0.789760000000     0.333333333333     0.416666666667     0          
O        O      0.736673333333     0.596660000000     0.416666666667     0          
O        O      0.806723333333     0.613446666667     0.416666666667     0          
O        O      0.888890000000     0.514493333333     0.500000000000     0          
O        O      0.707730000000     0.555556666667     0.500000000000     0          
O        O      0.818840000000     0.374396666667     0.500000000000     0          
O        O      0.777776666667     0.485506666667     0.500000000000     0          
O        O      0.958936666667     0.444443333333     0.500000000000     0          
O        O      0.847826666667     0.625603333333     0.500000000000     0          
O        O      0.876906666667     0.543573333333     0.583333333333     0          
O        O      0.859986666667     0.596660000000     0.583333333333     0          
O        O      0.806723333333     0.526610000000     0.583333333333     0          
O        O      0.666666666667     0.543573333333     0.583333333333     0          
O        O      0.929993333333     0.526653333333     0.583333333333     0          
O        O      0.946780000000     0.473390000000     0.583333333333     0          
O        O      0.789760000000     0.333333333333     0.583333333333     0          
O        O      0.736673333333     0.596660000000     0.583333333333     0          
O        O      0.806723333333     0.613446666667     0.583333333333     0          
O        O      0.789760000000     0.456426666667     0.583333333333     0          
O        O      0.806680000000     0.403340000000     0.583333333333     0          
O        O      0.859943333333     0.473390000000     0.583333333333     0          
O        O      0.666666666667     0.456426666667     0.583333333333     0          
O        O      0.736673333333     0.473346666667     0.583333333333     0          
O        O      0.719886666667     0.526610000000     0.583333333333     0          
O        O      0.876906666667     0.333333333333     0.583333333333     0          
O        O      0.929993333333     0.403340000000     0.583333333333     0          
O        O      0.859943333333     0.386553333333     0.583333333333     0          
O        O      0.818840000000     0.444443333333     0.666666666667     0          
O        O      0.789760000000     0.456426666667     0.750000000000     0          
O        O      0.806680000000     0.403340000000     0.750000000000     0          
O        O      0.859943333333     0.473390000000     0.750000000000     0          
O        O      0.707730000000     0.485506666667     0.666666666667     0          
O        O      0.666666666667     0.456426666667     0.750000000000     0          
O        O      0.736673333333     0.473346666667     0.750000000000     0          
O        O      0.719886666667     0.526610000000     0.750000000000     0          
O        O      0.888890000000     0.374396666667     0.666666666667     0          
O        O      0.876906666667     0.333333333333     0.750000000000     0          
O        O      0.929993333333     0.403340000000     0.750000000000     0          
O        O      0.859943333333     0.386553333333     0.750000000000     0          
O        O      0.847826666667     0.555556666667     0.666666666667     0          
O        O      0.876906666667     0.543573333333     0.750000000000     0          
O        O      0.859986666667     0.596660000000     0.750000000000     0          
O        O      0.806723333333     0.526610000000     0.750000000000     0          
O        O      0.958936666667     0.514493333333     0.666666666667     0          
O        O      0.666666666667     0.543573333333     0.750000000000     0          
O        O      0.929993333333     0.526653333333     0.750000000000     0          
O        O      0.946780000000     0.473390000000     0.750000000000     0          
O        O      0.777776666667     0.625603333333     0.666666666667     0          
O        O      0.789760000000     0.333333333333     0.750000000000     0          
O        O      0.736673333333     0.596660000000     0.750000000000     0          
O        O      0.806723333333     0.613446666667     0.750000000000     0          
O        O      0.888890000000     0.514493333333     0.833333333333     0          
O        O      0.707730000000     0.555556666667     0.833333333333     0          
O        O      0.818840000000     0.374396666667     0.833333333333     0          
O        O      0.777776666667     0.485506666667     0.833333333333     0          
O        O      0.958936666667     0.444443333333     0.833333333333     0          
O        O      0.847826666667     0.625603333333     0.833333333333     0          
O        O      0.876906666667     0.543573333333     0.916666666667     0          
O        O      0.859986666667     0.596660000000     0.916666666667     0          
O        O      0.806723333333     0.526610000000     0.916666666667     0          
O        O      0.666666666667     0.543573333333     0.916666666667     0          
O        O      0.929993333333     0.526653333333     0.916666666667     0          
O        O      0.946780000000     0.473390000000     0.916666666667     0          
O        O      0.789760000000     0.333333333333     0.916666666667     0          
O        O      0.736673333333     0.596660000000     0.916666666667     0          
O        O      0.806723333333     0.613446666667     0.916666666667     0          
O        O      0.789760000000     0.456426666667     0.916666666667     0          
O        O      0.806680000000     0.403340000000     0.916666666667     0          
O        O      0.859943333333     0.473390000000     0.916666666667     0          
O        O      0.666666666667     0.456426666667     0.916666666667     0          
O        O      0.736673333333     0.473346666667     0.916666666667     0          
O        O      0.719886666667     0.526610000000     0.916666666667     0          
O        O      0.876906666667     0.333333333333     0.916666666667     0          
O        O      0.929993333333     0.403340000000     0.916666666667     0          
O        O      0.859943333333     0.386553333333     0.916666666667     0          
O        O      0.818840000000     0.777776666667     0.000000000000     0          
O        O      0.789760000000     0.789760000000     0.083333333333     0          
O        O      0.806680000000     0.736673333333     0.083333333333     0          
O        O      0.859943333333     0.806723333333     0.083333333333     0          
O        O      0.707730000000     0.818840000000     0.000000000000     0          
O        O      0.666666666667     0.789760000000     0.083333333333     0          
O        O      0.736673333333     0.806680000000     0.083333333333     0          
O        O      0.719886666667     0.859943333333     0.083333333333     0          
O        O      0.888890000000     0.707730000000     0.000000000000     0          
O        O      0.876906666667     0.666666666667     0.083333333333     0          
O        O      0.929993333333     0.736673333333     0.083333333333     0          
O        O      0.859943333333     0.719886666667     0.083333333333     0          
O        O      0.847826666667     0.888890000000     0.000000000000     0          
O        O      0.876906666667     0.876906666667     0.083333333333     0          
O        O      0.859986666667     0.929993333333     0.083333333333     0          
O        O      0.806723333333     0.859943333333     0.083333333333     0          
O        O      0.958936666667     0.847826666667     0.000000000000     0          
O        O      0.666666666667     0.876906666667     0.083333333333     0          
O        O      0.929993333333     0.859986666667     0.083333333333     0          
O        O      0.946780000000     0.806723333333     0.083333333333     0          
O        O      0.777776666667     0.958936666667     0.000000000000     0          
O        O      0.789760000000     0.666666666667     0.083333333333     0          
O        O      0.736673333333     0.929993333333     0.083333333333     0          
O        O      0.806723333333     0.946780000000     0.083333333333     0          
O        O      0.888890000000     0.847826666667     0.166666666667     0          
O        O      0.707730000000     0.888890000000     0.166666666667     0          
O        O      0.818840000000     0.707730000000     0.166666666667     0          
O        O      0.777776666667     0.818840000000     0.166666666667     0          
O        O      0.958936666667     0.777776666667     0.166666666667     0          
O        O      0.847826666667     0.958936666667     0.166666666667     0          
O        O      0.876906666667     0.876906666667     0.250000000000     0          
O        O      0.859986666667     0.929993333333     0.250000000000     0          
O        O      0.806723333333     0.859943333333     0.250000000000     0          
O        O      0.666666666667     0.876906666667     0.250000000000     0          
O        O      0.929993333333     0.859986666667     0.250000000000     0          
O        O      0.946780000000     0.806723333333     0.250000000000     0          
O        O      0.789760000000     0.666666666667     0.250000000000     0          
O        O      0.736673333333     0.929993333333     0.250000000000     0          
O        O      0.806723333333     0.946780000000     0.250000000000     0          
O        O      0.789760000000     0.789760000000     0.250000000000     0          
O        O      0.806680000000     0.736673333333     0.250000000000     0          
O        O      0.859943333333     0.806723333333     0.250000000000     0          
O        O      0.666666666667     0.789760000000     0.250000000000     0          
O        O      0.736673333333     0.806680000000     0.250000000000     0          
O        O      0.719886666667     0.859943333333     0.250000000000     0          
O        O      0.876906666667     0.666666666667     0.250000000000     0          
O        O      0.929993333333     0.736673333333     0.250000000000     0          
O        O      0.859943333333     0.719886666667     0.250000000000     0          
O        O      0.818840000000     0.777776666667     0.333333333333     0          
O        O      0.789760000000     0.789760000000     0.416666666667     0          
O        O      0.806680000000     0.736673333333     0.416666666667     0          
O        O      0.859943333333     0.806723333333     0.416666666667     0          
O        O      0.707730000000     0.818840000000     0.333333333333     0          
O        O      0.666666666667     0.789760000000     0.416666666667     0          
O        O      0.736673333333     0.806680000000     0.416666666667     0          
O        O      0.719886666667     0.859943333333     0.416666666667     0          
O        O      0.888890000000     0.707730000000     0.333333333333     0          
O        O      0.876906666667     0.666666666667     0.416666666667     0          
O        O      0.929993333333     0.736673333333     0.416666666667     0          
O        O      0.859943333333     0.719886666667     0.416666666667     0          
O        O      0.847826666667     0.888890000000     0.333333333333     0          
O        O      0.876906666667     0.876906666667     0.416666666667     0          
O        O      0.859986666667     0.929993333333     0.416666666667     0          
O        O      0.806723333333     0.859943333333     0.416666666667     0          
O        O      0.958936666667     0.847826666667     0.333333333333     0          
O        O      0.666666666667     0.876906666667     0.416666666667     0          
O        O      0.929993333333     0.859986666667     0.416666666667     0          
O        O      0.946780000000     0.806723333333     0.416666666667     0          
O        O      0.777776666667     0.958936666667     0.333333333333     0          
O        O      0.789760000000     0.666666666667     0.416666666667     0          
O        O      0.736673333333     0.929993333333     0.416666666667     0          
O        O      0.806723333333     0.946780000000     0.416666666667     0          
O        O      0.888890000000     0.847826666667     0.500000000000     0          
O        O      0.707730000000     0.888890000000     0.500000000000     0          
O        O      0.818840000000     0.707730000000     0.500000000000     0          
O        O      0.777776666667     0.818840000000     0.500000000000     0          
O        O      0.958936666667     0.777776666667     0.500000000000     0          
O        O      0.847826666667     0.958936666667     0.500000000000     0          
O        O      0.876906666667     0.876906666667     0.583333333333     0          
O        O      0.859986666667     0.929993333333     0.583333333333     0          
O        O      0.806723333333     0.859943333333     0.583333333333     0          
O        O      0.666666666667     0.876906666667     0.583333333333     0          
O        O      0.929993333333     0.859986666667     0.583333333333     0          
O        O      0.946780000000     0.806723333333     0.583333333333     0          
O        O      0.789760000000     0.666666666667     0.583333333333     0          
O        O      0.736673333333     0.929993333333     0.583333333333     0          
O        O      0.806723333333     0.946780000000     0.583333333333     0          
O        O      0.789760000000     0.789760000000     0.583333333333     0          
O        O      0.806680000000     0.736673333333     0.583333333333     0          
O        O      0.859943333333     0.806723333333     0.583333333333     0          
O        O      0.666666666667     0.789760000000     0.583333333333     0          
O        O      0.736673333333     0.806680000000     0.583333333333     0          
O        O      0.719886666667     0.859943333333     0.583333333333     0          
O        O      0.876906666667     0.666666666667     0.583333333333     0          
O        O      0.929993333333     0.736673333333     0.583333333333     0          
O        O      0.859943333333     0.719886666667     0.583333333333     0          
O        O      0.818840000000     0.777776666667     0.666666666667     0          
O        O      0.789760000000     0.789760000000     0.750000000000     0          
O        O      0.806680000000     0.736673333333     0.750000000000     0          
O        O      0.859943333333     0.806723333333     0.750000000000     0          
O        O      0.707730000000     0.818840000000     0.666666666667     0          
O        O      0.666666666667     0.789760000000     0.750000000000     0          
O        O      0.736673333333     0.806680000000     0.750000000000     0          
O        O      0.719886666667     0.859943333333     0.750000000000     0          
O        O      0.888890000000     0.707730000000     0.666666666667     0          
O        O      0.876906666667     0.666666666667     0.750000000000     0          
O        O      0.929993333333     0.736673333333     0.750000000000     0          
O        O      0.859943333333     0.719886666667     0.750000000000     0          
O        O      0.847826666667     0.888890000000     0.666666666667     0          
O        O      0.876906666667     0.876906666667     0.750000000000     0          
O        O      0.859986666667     0.929993333333     0.750000000000     0          
O        O      0.806723333333     0.859943333333     0.750000000000     0          
O        O      0.958936666667     0.847826666667     0.666666666667     0          
O        O      0.666666666667     0.876906666667     0.750000000000     0          
O        O      0.929993333333     0.859986666667     0.750000000000     0          
O        O      0.946780000000     0.806723333333     0.750000000000     0          
O        O      0.777776666667     0.958936666667     0.666666666667     0          
O        O      0.789760000000     0.666666666667     0.750000000000     0          
O        O      0.736673333333     0.929993333333     0.750000000000     0          
O        O      0.806723333333     0.946780000000     0.750000000000     0          
O        O      0.888890000000     0.847826666667     0.833333333333     0          
O        O      0.707730000000     0.888890000000     0.833333333333     0          
O        O      0.818840000000     0.707730000000     0.833333333333     0          
O        O      0.777776666667     0.818840000000     0.833333333333     0          
O        O      0.958936666667     0.777776666667     0.833333333333     0          
O        O      0.847826666667     0.958936666667     0.833333333333     0          
O        O      0.876906666667     0.876906666667     0.916666666667     0          
O        O      0.859986666667     0.929993333333     0.916666666667     0          
O        O      0.806723333333     0.859943333333     0.916666666667     0          
O        O      0.666666666667     0.876906666667     0.916666666667     0          
O        O      0.929993333333     0.859986666667     0.916666666667     0          
O        O      0.946780000000     0.806723333333     0.916666666667     0          
O        O      0.789760000000     0.666666666667     0.916666666667     0          
O        O      0.736673333333     0.929993333333     0.916666666667     0          
O        O      0.806723333333     0.946780000000     0.916666666667     0          
O        O      0.789760000000     0.789760000000     0.916666666667     0          
O        O      0.806680000000     0.736673333333     0.916666666667     0          
O        O      0.859943333333     0.806723333333     0.916666666667     0          
O        O      0.666666666667     0.789760000000     0.916666666667     0          
O        O      0.736673333333     0.806680000000     0.916666666667     0          
O        O      0.719886666667     0.859943333333     0.916666666667     0          
O        O      0.876906666667     0.666666666667     0.916666666667     0          
O        O      0.929993333333     0.736673333333     0.916666666667     0          
O        O      0.859943333333     0.719886666667     0.916666666667     0          


