data_zeolite

_audit_creation_method RASPA-1.0
_audit_creation_date 2021-1-19
_audit_author_name ''

_cell_length_a    35.757
_cell_length_b    35.757
_cell_length_c    35.757
_cell_angle_alpha 90
_cell_angle_beta  90
_cell_angle_gamma 90
_cell_volume      45717.6

_symmetry_cell_setting          cubic
_symmetry_space_group_name_Hall 'P 1'
_symmetry_space_group_name_H-M  'P 1'
_symmetry_Int_Tables_number     1

_symmetry_equiv_pos_as_xyz 'x,y,z'

loop_
_atom_site_label
_atom_site_type_symbol
_atom_site_fract_x
_atom_site_fract_y
_atom_site_fract_z
_atom_site_charge
O        O      0.000000000000     0.070733333333     0.166666666667     0          
O        O      0.036766666667     0.036766666667     0.112800000000     0          
O        O      0.000000000000     0.098900000000     0.098900000000     0          
T        Si     0.000000000000     0.060766666667     0.122800000000     0          
O        O      0.262600000000     0.000000000000     0.166666666667     0          
O        O      0.296566666667     0.036766666667     0.112800000000     0          
O        O      0.234433333333     0.000000000000     0.098900000000     0          
T        Si     0.272566666667     0.000000000000     0.122800000000     0          
O        O      0.000000000000     0.262600000000     0.166666666667     0          
O        O      0.296566666667     0.296566666667     0.112800000000     0          
O        O      0.000000000000     0.234433333333     0.098900000000     0          
T        Si     0.000000000000     0.272566666667     0.122800000000     0          
O        O      0.070733333333     0.000000000000     0.166666666667     0          
O        O      0.036766666667     0.296566666667     0.112800000000     0          
O        O      0.098900000000     0.000000000000     0.098900000000     0          
T        Si     0.060766666667     0.000000000000     0.122800000000     0          
O        O      0.036766666667     0.296566666667     0.220533333333     0          
O        O      0.000000000000     0.234433333333     0.234433333333     0          
T        Si     0.000000000000     0.272566666667     0.210533333333     0          
O        O      0.036766666667     0.036766666667     0.220533333333     0          
O        O      0.098900000000     0.000000000000     0.234433333333     0          
T        Si     0.060766666667     0.000000000000     0.210533333333     0          
O        O      0.296566666667     0.036766666667     0.220533333333     0          
O        O      0.000000000000     0.098900000000     0.234433333333     0          
T        Si     0.000000000000     0.060766666667     0.210533333333     0          
O        O      0.296566666667     0.296566666667     0.220533333333     0          
O        O      0.234433333333     0.000000000000     0.234433333333     0          
T        Si     0.272566666667     0.000000000000     0.210533333333     0          
O        O      0.166666666667     0.000000000000     0.070733333333     0          
O        O      0.112800000000     0.036766666667     0.036766666667     0          
T        Si     0.122800000000     0.000000000000     0.060766666667     0          
O        O      0.000000000000     0.166666666667     0.070733333333     0          
O        O      0.296566666667     0.112800000000     0.036766666667     0          
T        Si     0.000000000000     0.122800000000     0.060766666667     0          
O        O      0.220533333333     0.296566666667     0.036766666667     0          
T        Si     0.210533333333     0.000000000000     0.060766666667     0          
O        O      0.036766666667     0.220533333333     0.036766666667     0          
T        Si     0.000000000000     0.210533333333     0.060766666667     0          
O        O      0.166666666667     0.000000000000     0.262600000000     0          
O        O      0.112800000000     0.296566666667     0.296566666667     0          
T        Si     0.122800000000     0.000000000000     0.272566666667     0          
O        O      0.000000000000     0.166666666667     0.262600000000     0          
O        O      0.036766666667     0.112800000000     0.296566666667     0          
T        Si     0.000000000000     0.122800000000     0.272566666667     0          
O        O      0.220533333333     0.036766666667     0.296566666667     0          
T        Si     0.210533333333     0.000000000000     0.272566666667     0          
O        O      0.296566666667     0.220533333333     0.296566666667     0          
T        Si     0.000000000000     0.210533333333     0.272566666667     0          
O        O      0.070733333333     0.166666666667     0.000000000000     0          
O        O      0.036766666667     0.112800000000     0.036766666667     0          
O        O      0.098900000000     0.098900000000     0.000000000000     0          
T        Si     0.060766666667     0.122800000000     0.000000000000     0          
O        O      0.036766666667     0.220533333333     0.296566666667     0          
O        O      0.098900000000     0.234433333333     0.000000000000     0          
T        Si     0.060766666667     0.210533333333     0.000000000000     0          
O        O      0.166666666667     0.070733333333     0.000000000000     0          
O        O      0.112800000000     0.036766666667     0.296566666667     0          
T        Si     0.122800000000     0.060766666667     0.000000000000     0          
O        O      0.262600000000     0.166666666667     0.000000000000     0          
O        O      0.296566666667     0.112800000000     0.296566666667     0          
O        O      0.234433333333     0.098900000000     0.000000000000     0          
T        Si     0.272566666667     0.122800000000     0.000000000000     0          
O        O      0.166666666667     0.262600000000     0.000000000000     0          
O        O      0.220533333333     0.296566666667     0.296566666667     0          
O        O      0.234433333333     0.234433333333     0.000000000000     0          
T        Si     0.210533333333     0.272566666667     0.000000000000     0          
O        O      0.296566666667     0.220533333333     0.036766666667     0          
T        Si     0.272566666667     0.210533333333     0.000000000000     0          
O        O      0.112800000000     0.296566666667     0.036766666667     0          
T        Si     0.122800000000     0.272566666667     0.000000000000     0          
O        O      0.220533333333     0.036766666667     0.036766666667     0          
T        Si     0.210533333333     0.060766666667     0.000000000000     0          
O        O      0.000000000000     0.070733333333     0.500000000000     0          
O        O      0.036766666667     0.036766666667     0.446133333333     0          
O        O      0.000000000000     0.098900000000     0.432233333333     0          
T        Si     0.000000000000     0.060766666667     0.456133333333     0          
O        O      0.262600000000     0.000000000000     0.500000000000     0          
O        O      0.296566666667     0.036766666667     0.446133333333     0          
O        O      0.234433333333     0.000000000000     0.432233333333     0          
T        Si     0.272566666667     0.000000000000     0.456133333333     0          
O        O      0.000000000000     0.262600000000     0.500000000000     0          
O        O      0.296566666667     0.296566666667     0.446133333333     0          
O        O      0.000000000000     0.234433333333     0.432233333333     0          
T        Si     0.000000000000     0.272566666667     0.456133333333     0          
O        O      0.070733333333     0.000000000000     0.500000000000     0          
O        O      0.036766666667     0.296566666667     0.446133333333     0          
O        O      0.098900000000     0.000000000000     0.432233333333     0          
T        Si     0.060766666667     0.000000000000     0.456133333333     0          
O        O      0.036766666667     0.296566666667     0.553866666667     0          
O        O      0.000000000000     0.234433333333     0.567766666667     0          
T        Si     0.000000000000     0.272566666667     0.543866666667     0          
O        O      0.036766666667     0.036766666667     0.553866666667     0          
O        O      0.098900000000     0.000000000000     0.567766666667     0          
T        Si     0.060766666667     0.000000000000     0.543866666667     0          
O        O      0.296566666667     0.036766666667     0.553866666667     0          
O        O      0.000000000000     0.098900000000     0.567766666667     0          
T        Si     0.000000000000     0.060766666667     0.543866666667     0          
O        O      0.296566666667     0.296566666667     0.553866666667     0          
O        O      0.234433333333     0.000000000000     0.567766666667     0          
T        Si     0.272566666667     0.000000000000     0.543866666667     0          
O        O      0.166666666667     0.000000000000     0.404066666667     0          
O        O      0.112800000000     0.036766666667     0.370100000000     0          
T        Si     0.122800000000     0.000000000000     0.394100000000     0          
O        O      0.000000000000     0.166666666667     0.404066666667     0          
O        O      0.296566666667     0.112800000000     0.370100000000     0          
T        Si     0.000000000000     0.122800000000     0.394100000000     0          
O        O      0.220533333333     0.296566666667     0.370100000000     0          
T        Si     0.210533333333     0.000000000000     0.394100000000     0          
O        O      0.036766666667     0.220533333333     0.370100000000     0          
T        Si     0.000000000000     0.210533333333     0.394100000000     0          
O        O      0.166666666667     0.000000000000     0.595933333333     0          
O        O      0.112800000000     0.296566666667     0.629900000000     0          
T        Si     0.122800000000     0.000000000000     0.605900000000     0          
O        O      0.000000000000     0.166666666667     0.595933333333     0          
O        O      0.036766666667     0.112800000000     0.629900000000     0          
T        Si     0.000000000000     0.122800000000     0.605900000000     0          
O        O      0.220533333333     0.036766666667     0.629900000000     0          
T        Si     0.210533333333     0.000000000000     0.605900000000     0          
O        O      0.296566666667     0.220533333333     0.629900000000     0          
T        Si     0.000000000000     0.210533333333     0.605900000000     0          
O        O      0.070733333333     0.166666666667     0.333333333333     0          
O        O      0.036766666667     0.112800000000     0.370100000000     0          
O        O      0.098900000000     0.098900000000     0.333333333333     0          
T        Si     0.060766666667     0.122800000000     0.333333333333     0          
O        O      0.036766666667     0.220533333333     0.629900000000     0          
O        O      0.098900000000     0.234433333333     0.333333333333     0          
T        Si     0.060766666667     0.210533333333     0.333333333333     0          
O        O      0.166666666667     0.070733333333     0.333333333333     0          
O        O      0.112800000000     0.036766666667     0.629900000000     0          
T        Si     0.122800000000     0.060766666667     0.333333333333     0          
O        O      0.262600000000     0.166666666667     0.333333333333     0          
O        O      0.296566666667     0.112800000000     0.629900000000     0          
O        O      0.234433333333     0.098900000000     0.333333333333     0          
T        Si     0.272566666667     0.122800000000     0.333333333333     0          
O        O      0.166666666667     0.262600000000     0.333333333333     0          
O        O      0.220533333333     0.296566666667     0.629900000000     0          
O        O      0.234433333333     0.234433333333     0.333333333333     0          
T        Si     0.210533333333     0.272566666667     0.333333333333     0          
O        O      0.296566666667     0.220533333333     0.370100000000     0          
T        Si     0.272566666667     0.210533333333     0.333333333333     0          
O        O      0.112800000000     0.296566666667     0.370100000000     0          
T        Si     0.122800000000     0.272566666667     0.333333333333     0          
O        O      0.220533333333     0.036766666667     0.370100000000     0          
T        Si     0.210533333333     0.060766666667     0.333333333333     0          
O        O      0.000000000000     0.070733333333     0.833333333333     0          
O        O      0.036766666667     0.036766666667     0.779466666667     0          
O        O      0.000000000000     0.098900000000     0.765566666667     0          
T        Si     0.000000000000     0.060766666667     0.789466666667     0          
O        O      0.262600000000     0.000000000000     0.833333333333     0          
O        O      0.296566666667     0.036766666667     0.779466666667     0          
O        O      0.234433333333     0.000000000000     0.765566666667     0          
T        Si     0.272566666667     0.000000000000     0.789466666667     0          
O        O      0.000000000000     0.262600000000     0.833333333333     0          
O        O      0.296566666667     0.296566666667     0.779466666667     0          
O        O      0.000000000000     0.234433333333     0.765566666667     0          
T        Si     0.000000000000     0.272566666667     0.789466666667     0          
O        O      0.070733333333     0.000000000000     0.833333333333     0          
O        O      0.036766666667     0.296566666667     0.779466666667     0          
O        O      0.098900000000     0.000000000000     0.765566666667     0          
T        Si     0.060766666667     0.000000000000     0.789466666667     0          
O        O      0.036766666667     0.296566666667     0.887200000000     0          
O        O      0.000000000000     0.234433333333     0.901100000000     0          
T        Si     0.000000000000     0.272566666667     0.877200000000     0          
O        O      0.036766666667     0.036766666667     0.887200000000     0          
O        O      0.098900000000     0.000000000000     0.901100000000     0          
T        Si     0.060766666667     0.000000000000     0.877200000000     0          
O        O      0.296566666667     0.036766666667     0.887200000000     0          
O        O      0.000000000000     0.098900000000     0.901100000000     0          
T        Si     0.000000000000     0.060766666667     0.877200000000     0          
O        O      0.296566666667     0.296566666667     0.887200000000     0          
O        O      0.234433333333     0.000000000000     0.901100000000     0          
T        Si     0.272566666667     0.000000000000     0.877200000000     0          
O        O      0.166666666667     0.000000000000     0.737400000000     0          
O        O      0.112800000000     0.036766666667     0.703433333333     0          
T        Si     0.122800000000     0.000000000000     0.727433333333     0          
O        O      0.000000000000     0.166666666667     0.737400000000     0          
O        O      0.296566666667     0.112800000000     0.703433333333     0          
T        Si     0.000000000000     0.122800000000     0.727433333333     0          
O        O      0.220533333333     0.296566666667     0.703433333333     0          
T        Si     0.210533333333     0.000000000000     0.727433333333     0          
O        O      0.036766666667     0.220533333333     0.703433333333     0          
T        Si     0.000000000000     0.210533333333     0.727433333333     0          
O        O      0.166666666667     0.000000000000     0.929266666667     0          
O        O      0.112800000000     0.296566666667     0.963233333333     0          
T        Si     0.122800000000     0.000000000000     0.939233333333     0          
O        O      0.000000000000     0.166666666667     0.929266666667     0          
O        O      0.036766666667     0.112800000000     0.963233333333     0          
T        Si     0.000000000000     0.122800000000     0.939233333333     0          
O        O      0.220533333333     0.036766666667     0.963233333333     0          
T        Si     0.210533333333     0.000000000000     0.939233333333     0          
O        O      0.296566666667     0.220533333333     0.963233333333     0          
T        Si     0.000000000000     0.210533333333     0.939233333333     0          
O        O      0.070733333333     0.166666666667     0.666666666667     0          
O        O      0.036766666667     0.112800000000     0.703433333333     0          
O        O      0.098900000000     0.098900000000     0.666666666667     0          
T        Si     0.060766666667     0.122800000000     0.666666666667     0          
O        O      0.036766666667     0.220533333333     0.963233333333     0          
O        O      0.098900000000     0.234433333333     0.666666666667     0          
T        Si     0.060766666667     0.210533333333     0.666666666667     0          
O        O      0.166666666667     0.070733333333     0.666666666667     0          
O        O      0.112800000000     0.036766666667     0.963233333333     0          
T        Si     0.122800000000     0.060766666667     0.666666666667     0          
O        O      0.262600000000     0.166666666667     0.666666666667     0          
O        O      0.296566666667     0.112800000000     0.963233333333     0          
O        O      0.234433333333     0.098900000000     0.666666666667     0          
T        Si     0.272566666667     0.122800000000     0.666666666667     0          
O        O      0.166666666667     0.262600000000     0.666666666667     0          
O        O      0.220533333333     0.296566666667     0.963233333333     0          
O        O      0.234433333333     0.234433333333     0.666666666667     0          
T        Si     0.210533333333     0.272566666667     0.666666666667     0          
O        O      0.296566666667     0.220533333333     0.703433333333     0          
T        Si     0.272566666667     0.210533333333     0.666666666667     0          
O        O      0.112800000000     0.296566666667     0.703433333333     0          
T        Si     0.122800000000     0.272566666667     0.666666666667     0          
O        O      0.220533333333     0.036766666667     0.703433333333     0          
T        Si     0.210533333333     0.060766666667     0.666666666667     0          
O        O      0.000000000000     0.404066666667     0.166666666667     0          
O        O      0.036766666667     0.370100000000     0.112800000000     0          
O        O      0.000000000000     0.432233333333     0.098900000000     0          
T        Si     0.000000000000     0.394100000000     0.122800000000     0          
O        O      0.262600000000     0.333333333333     0.166666666667     0          
O        O      0.296566666667     0.370100000000     0.112800000000     0          
O        O      0.234433333333     0.333333333333     0.098900000000     0          
T        Si     0.272566666667     0.333333333333     0.122800000000     0          
O        O      0.000000000000     0.595933333333     0.166666666667     0          
O        O      0.296566666667     0.629900000000     0.112800000000     0          
O        O      0.000000000000     0.567766666667     0.098900000000     0          
T        Si     0.000000000000     0.605900000000     0.122800000000     0          
O        O      0.070733333333     0.333333333333     0.166666666667     0          
O        O      0.036766666667     0.629900000000     0.112800000000     0          
O        O      0.098900000000     0.333333333333     0.098900000000     0          
T        Si     0.060766666667     0.333333333333     0.122800000000     0          
O        O      0.036766666667     0.629900000000     0.220533333333     0          
O        O      0.000000000000     0.567766666667     0.234433333333     0          
T        Si     0.000000000000     0.605900000000     0.210533333333     0          
O        O      0.036766666667     0.370100000000     0.220533333333     0          
O        O      0.098900000000     0.333333333333     0.234433333333     0          
T        Si     0.060766666667     0.333333333333     0.210533333333     0          
O        O      0.296566666667     0.370100000000     0.220533333333     0          
O        O      0.000000000000     0.432233333333     0.234433333333     0          
T        Si     0.000000000000     0.394100000000     0.210533333333     0          
O        O      0.296566666667     0.629900000000     0.220533333333     0          
O        O      0.234433333333     0.333333333333     0.234433333333     0          
T        Si     0.272566666667     0.333333333333     0.210533333333     0          
O        O      0.166666666667     0.333333333333     0.070733333333     0          
O        O      0.112800000000     0.370100000000     0.036766666667     0          
T        Si     0.122800000000     0.333333333333     0.060766666667     0          
O        O      0.000000000000     0.500000000000     0.070733333333     0          
O        O      0.296566666667     0.446133333333     0.036766666667     0          
T        Si     0.000000000000     0.456133333333     0.060766666667     0          
O        O      0.220533333333     0.629900000000     0.036766666667     0          
T        Si     0.210533333333     0.333333333333     0.060766666667     0          
O        O      0.036766666667     0.553866666667     0.036766666667     0          
T        Si     0.000000000000     0.543866666667     0.060766666667     0          
O        O      0.166666666667     0.333333333333     0.262600000000     0          
O        O      0.112800000000     0.629900000000     0.296566666667     0          
T        Si     0.122800000000     0.333333333333     0.272566666667     0          
O        O      0.000000000000     0.500000000000     0.262600000000     0          
O        O      0.036766666667     0.446133333333     0.296566666667     0          
T        Si     0.000000000000     0.456133333333     0.272566666667     0          
O        O      0.220533333333     0.370100000000     0.296566666667     0          
T        Si     0.210533333333     0.333333333333     0.272566666667     0          
O        O      0.296566666667     0.553866666667     0.296566666667     0          
T        Si     0.000000000000     0.543866666667     0.272566666667     0          
O        O      0.070733333333     0.500000000000     0.000000000000     0          
O        O      0.036766666667     0.446133333333     0.036766666667     0          
O        O      0.098900000000     0.432233333333     0.000000000000     0          
T        Si     0.060766666667     0.456133333333     0.000000000000     0          
O        O      0.036766666667     0.553866666667     0.296566666667     0          
O        O      0.098900000000     0.567766666667     0.000000000000     0          
T        Si     0.060766666667     0.543866666667     0.000000000000     0          
O        O      0.166666666667     0.404066666667     0.000000000000     0          
O        O      0.112800000000     0.370100000000     0.296566666667     0          
T        Si     0.122800000000     0.394100000000     0.000000000000     0          
O        O      0.262600000000     0.500000000000     0.000000000000     0          
O        O      0.296566666667     0.446133333333     0.296566666667     0          
O        O      0.234433333333     0.432233333333     0.000000000000     0          
T        Si     0.272566666667     0.456133333333     0.000000000000     0          
O        O      0.166666666667     0.595933333333     0.000000000000     0          
O        O      0.220533333333     0.629900000000     0.296566666667     0          
O        O      0.234433333333     0.567766666667     0.000000000000     0          
T        Si     0.210533333333     0.605900000000     0.000000000000     0          
O        O      0.296566666667     0.553866666667     0.036766666667     0          
T        Si     0.272566666667     0.543866666667     0.000000000000     0          
O        O      0.112800000000     0.629900000000     0.036766666667     0          
T        Si     0.122800000000     0.605900000000     0.000000000000     0          
O        O      0.220533333333     0.370100000000     0.036766666667     0          
T        Si     0.210533333333     0.394100000000     0.000000000000     0          
O        O      0.000000000000     0.404066666667     0.500000000000     0          
O        O      0.036766666667     0.370100000000     0.446133333333     0          
O        O      0.000000000000     0.432233333333     0.432233333333     0          
T        Si     0.000000000000     0.394100000000     0.456133333333     0          
O        O      0.262600000000     0.333333333333     0.500000000000     0          
O        O      0.296566666667     0.370100000000     0.446133333333     0          
O        O      0.234433333333     0.333333333333     0.432233333333     0          
T        Si     0.272566666667     0.333333333333     0.456133333333     0          
O        O      0.000000000000     0.595933333333     0.500000000000     0          
O        O      0.296566666667     0.629900000000     0.446133333333     0          
O        O      0.000000000000     0.567766666667     0.432233333333     0          
T        Si     0.000000000000     0.605900000000     0.456133333333     0          
O        O      0.070733333333     0.333333333333     0.500000000000     0          
O        O      0.036766666667     0.629900000000     0.446133333333     0          
O        O      0.098900000000     0.333333333333     0.432233333333     0          
T        Si     0.060766666667     0.333333333333     0.456133333333     0          
O        O      0.036766666667     0.629900000000     0.553866666667     0          
O        O      0.000000000000     0.567766666667     0.567766666667     0          
T        Si     0.000000000000     0.605900000000     0.543866666667     0          
O        O      0.036766666667     0.370100000000     0.553866666667     0          
O        O      0.098900000000     0.333333333333     0.567766666667     0          
T        Si     0.060766666667     0.333333333333     0.543866666667     0          
O        O      0.296566666667     0.370100000000     0.553866666667     0          
O        O      0.000000000000     0.432233333333     0.567766666667     0          
T        Si     0.000000000000     0.394100000000     0.543866666667     0          
O        O      0.296566666667     0.629900000000     0.553866666667     0          
O        O      0.234433333333     0.333333333333     0.567766666667     0          
T        Si     0.272566666667     0.333333333333     0.543866666667     0          
O        O      0.166666666667     0.333333333333     0.404066666667     0          
O        O      0.112800000000     0.370100000000     0.370100000000     0          
T        Si     0.122800000000     0.333333333333     0.394100000000     0          
O        O      0.000000000000     0.500000000000     0.404066666667     0          
O        O      0.296566666667     0.446133333333     0.370100000000     0          
T        Si     0.000000000000     0.456133333333     0.394100000000     0          
O        O      0.220533333333     0.629900000000     0.370100000000     0          
T        Si     0.210533333333     0.333333333333     0.394100000000     0          
O        O      0.036766666667     0.553866666667     0.370100000000     0          
T        Si     0.000000000000     0.543866666667     0.394100000000     0          
O        O      0.166666666667     0.333333333333     0.595933333333     0          
O        O      0.112800000000     0.629900000000     0.629900000000     0          
T        Si     0.122800000000     0.333333333333     0.605900000000     0          
O        O      0.000000000000     0.500000000000     0.595933333333     0          
O        O      0.036766666667     0.446133333333     0.629900000000     0          
T        Si     0.000000000000     0.456133333333     0.605900000000     0          
O        O      0.220533333333     0.370100000000     0.629900000000     0          
T        Si     0.210533333333     0.333333333333     0.605900000000     0          
O        O      0.296566666667     0.553866666667     0.629900000000     0          
T        Si     0.000000000000     0.543866666667     0.605900000000     0          
O        O      0.070733333333     0.500000000000     0.333333333333     0          
O        O      0.036766666667     0.446133333333     0.370100000000     0          
O        O      0.098900000000     0.432233333333     0.333333333333     0          
T        Si     0.060766666667     0.456133333333     0.333333333333     0          
O        O      0.036766666667     0.553866666667     0.629900000000     0          
O        O      0.098900000000     0.567766666667     0.333333333333     0          
T        Si     0.060766666667     0.543866666667     0.333333333333     0          
O        O      0.166666666667     0.404066666667     0.333333333333     0          
O        O      0.112800000000     0.370100000000     0.629900000000     0          
T        Si     0.122800000000     0.394100000000     0.333333333333     0          
O        O      0.262600000000     0.500000000000     0.333333333333     0          
O        O      0.296566666667     0.446133333333     0.629900000000     0          
O        O      0.234433333333     0.432233333333     0.333333333333     0          
T        Si     0.272566666667     0.456133333333     0.333333333333     0          
O        O      0.166666666667     0.595933333333     0.333333333333     0          
O        O      0.220533333333     0.629900000000     0.629900000000     0          
O        O      0.234433333333     0.567766666667     0.333333333333     0          
T        Si     0.210533333333     0.605900000000     0.333333333333     0          
O        O      0.296566666667     0.553866666667     0.370100000000     0          
T        Si     0.272566666667     0.543866666667     0.333333333333     0          
O        O      0.112800000000     0.629900000000     0.370100000000     0          
T        Si     0.122800000000     0.605900000000     0.333333333333     0          
O        O      0.220533333333     0.370100000000     0.370100000000     0          
T        Si     0.210533333333     0.394100000000     0.333333333333     0          
O        O      0.000000000000     0.404066666667     0.833333333333     0          
O        O      0.036766666667     0.370100000000     0.779466666667     0          
O        O      0.000000000000     0.432233333333     0.765566666667     0          
T        Si     0.000000000000     0.394100000000     0.789466666667     0          
O        O      0.262600000000     0.333333333333     0.833333333333     0          
O        O      0.296566666667     0.370100000000     0.779466666667     0          
O        O      0.234433333333     0.333333333333     0.765566666667     0          
T        Si     0.272566666667     0.333333333333     0.789466666667     0          
O        O      0.000000000000     0.595933333333     0.833333333333     0          
O        O      0.296566666667     0.629900000000     0.779466666667     0          
O        O      0.000000000000     0.567766666667     0.765566666667     0          
T        Si     0.000000000000     0.605900000000     0.789466666667     0          
O        O      0.070733333333     0.333333333333     0.833333333333     0          
O        O      0.036766666667     0.629900000000     0.779466666667     0          
O        O      0.098900000000     0.333333333333     0.765566666667     0          
T        Si     0.060766666667     0.333333333333     0.789466666667     0          
O        O      0.036766666667     0.629900000000     0.887200000000     0          
O        O      0.000000000000     0.567766666667     0.901100000000     0          
T        Si     0.000000000000     0.605900000000     0.877200000000     0          
O        O      0.036766666667     0.370100000000     0.887200000000     0          
O        O      0.098900000000     0.333333333333     0.901100000000     0          
T        Si     0.060766666667     0.333333333333     0.877200000000     0          
O        O      0.296566666667     0.370100000000     0.887200000000     0          
O        O      0.000000000000     0.432233333333     0.901100000000     0          
T        Si     0.000000000000     0.394100000000     0.877200000000     0          
O        O      0.296566666667     0.629900000000     0.887200000000     0          
O        O      0.234433333333     0.333333333333     0.901100000000     0          
T        Si     0.272566666667     0.333333333333     0.877200000000     0          
O        O      0.166666666667     0.333333333333     0.737400000000     0          
O        O      0.112800000000     0.370100000000     0.703433333333     0          
T        Si     0.122800000000     0.333333333333     0.727433333333     0          
O        O      0.000000000000     0.500000000000     0.737400000000     0          
O        O      0.296566666667     0.446133333333     0.703433333333     0          
T        Si     0.000000000000     0.456133333333     0.727433333333     0          
O        O      0.220533333333     0.629900000000     0.703433333333     0          
T        Si     0.210533333333     0.333333333333     0.727433333333     0          
O        O      0.036766666667     0.553866666667     0.703433333333     0          
T        Si     0.000000000000     0.543866666667     0.727433333333     0          
O        O      0.166666666667     0.333333333333     0.929266666667     0          
O        O      0.112800000000     0.629900000000     0.963233333333     0          
T        Si     0.122800000000     0.333333333333     0.939233333333     0          
O        O      0.000000000000     0.500000000000     0.929266666667     0          
O        O      0.036766666667     0.446133333333     0.963233333333     0          
T        Si     0.000000000000     0.456133333333     0.939233333333     0          
O        O      0.220533333333     0.370100000000     0.963233333333     0          
T        Si     0.210533333333     0.333333333333     0.939233333333     0          
O        O      0.296566666667     0.553866666667     0.963233333333     0          
T        Si     0.000000000000     0.543866666667     0.939233333333     0          
O        O      0.070733333333     0.500000000000     0.666666666667     0          
O        O      0.036766666667     0.446133333333     0.703433333333     0          
O        O      0.098900000000     0.432233333333     0.666666666667     0          
T        Si     0.060766666667     0.456133333333     0.666666666667     0          
O        O      0.036766666667     0.553866666667     0.963233333333     0          
O        O      0.098900000000     0.567766666667     0.666666666667     0          
T        Si     0.060766666667     0.543866666667     0.666666666667     0          
O        O      0.166666666667     0.404066666667     0.666666666667     0          
O        O      0.112800000000     0.370100000000     0.963233333333     0          
T        Si     0.122800000000     0.394100000000     0.666666666667     0          
O        O      0.262600000000     0.500000000000     0.666666666667     0          
O        O      0.296566666667     0.446133333333     0.963233333333     0          
O        O      0.234433333333     0.432233333333     0.666666666667     0          
T        Si     0.272566666667     0.456133333333     0.666666666667     0          
O        O      0.166666666667     0.595933333333     0.666666666667     0          
O        O      0.220533333333     0.629900000000     0.963233333333     0          
O        O      0.234433333333     0.567766666667     0.666666666667     0          
T        Si     0.210533333333     0.605900000000     0.666666666667     0          
O        O      0.296566666667     0.553866666667     0.703433333333     0          
T        Si     0.272566666667     0.543866666667     0.666666666667     0          
O        O      0.112800000000     0.629900000000     0.703433333333     0          
T        Si     0.122800000000     0.605900000000     0.666666666667     0          
O        O      0.220533333333     0.370100000000     0.703433333333     0          
T        Si     0.210533333333     0.394100000000     0.666666666667     0          
O        O      0.000000000000     0.737400000000     0.166666666667     0          
O        O      0.036766666667     0.703433333333     0.112800000000     0          
O        O      0.000000000000     0.765566666667     0.098900000000     0          
T        Si     0.000000000000     0.727433333333     0.122800000000     0          
O        O      0.262600000000     0.666666666667     0.166666666667     0          
O        O      0.296566666667     0.703433333333     0.112800000000     0          
O        O      0.234433333333     0.666666666667     0.098900000000     0          
T        Si     0.272566666667     0.666666666667     0.122800000000     0          
O        O      0.000000000000     0.929266666667     0.166666666667     0          
O        O      0.296566666667     0.963233333333     0.112800000000     0          
O        O      0.000000000000     0.901100000000     0.098900000000     0          
T        Si     0.000000000000     0.939233333333     0.122800000000     0          
O        O      0.070733333333     0.666666666667     0.166666666667     0          
O        O      0.036766666667     0.963233333333     0.112800000000     0          
O        O      0.098900000000     0.666666666667     0.098900000000     0          
T        Si     0.060766666667     0.666666666667     0.122800000000     0          
O        O      0.036766666667     0.963233333333     0.220533333333     0          
O        O      0.000000000000     0.901100000000     0.234433333333     0          
T        Si     0.000000000000     0.939233333333     0.210533333333     0          
O        O      0.036766666667     0.703433333333     0.220533333333     0          
O        O      0.098900000000     0.666666666667     0.234433333333     0          
T        Si     0.060766666667     0.666666666667     0.210533333333     0          
O        O      0.296566666667     0.703433333333     0.220533333333     0          
O        O      0.000000000000     0.765566666667     0.234433333333     0          
T        Si     0.000000000000     0.727433333333     0.210533333333     0          
O        O      0.296566666667     0.963233333333     0.220533333333     0          
O        O      0.234433333333     0.666666666667     0.234433333333     0          
T        Si     0.272566666667     0.666666666667     0.210533333333     0          
O        O      0.166666666667     0.666666666667     0.070733333333     0          
O        O      0.112800000000     0.703433333333     0.036766666667     0          
T        Si     0.122800000000     0.666666666667     0.060766666667     0          
O        O      0.000000000000     0.833333333333     0.070733333333     0          
O        O      0.296566666667     0.779466666667     0.036766666667     0          
T        Si     0.000000000000     0.789466666667     0.060766666667     0          
O        O      0.220533333333     0.963233333333     0.036766666667     0          
T        Si     0.210533333333     0.666666666667     0.060766666667     0          
O        O      0.036766666667     0.887200000000     0.036766666667     0          
T        Si     0.000000000000     0.877200000000     0.060766666667     0          
O        O      0.166666666667     0.666666666667     0.262600000000     0          
O        O      0.112800000000     0.963233333333     0.296566666667     0          
T        Si     0.122800000000     0.666666666667     0.272566666667     0          
O        O      0.000000000000     0.833333333333     0.262600000000     0          
O        O      0.036766666667     0.779466666667     0.296566666667     0          
T        Si     0.000000000000     0.789466666667     0.272566666667     0          
O        O      0.220533333333     0.703433333333     0.296566666667     0          
T        Si     0.210533333333     0.666666666667     0.272566666667     0          
O        O      0.296566666667     0.887200000000     0.296566666667     0          
T        Si     0.000000000000     0.877200000000     0.272566666667     0          
O        O      0.070733333333     0.833333333333     0.000000000000     0          
O        O      0.036766666667     0.779466666667     0.036766666667     0          
O        O      0.098900000000     0.765566666667     0.000000000000     0          
T        Si     0.060766666667     0.789466666667     0.000000000000     0          
O        O      0.036766666667     0.887200000000     0.296566666667     0          
O        O      0.098900000000     0.901100000000     0.000000000000     0          
T        Si     0.060766666667     0.877200000000     0.000000000000     0          
O        O      0.166666666667     0.737400000000     0.000000000000     0          
O        O      0.112800000000     0.703433333333     0.296566666667     0          
T        Si     0.122800000000     0.727433333333     0.000000000000     0          
O        O      0.262600000000     0.833333333333     0.000000000000     0          
O        O      0.296566666667     0.779466666667     0.296566666667     0          
O        O      0.234433333333     0.765566666667     0.000000000000     0          
T        Si     0.272566666667     0.789466666667     0.000000000000     0          
O        O      0.166666666667     0.929266666667     0.000000000000     0          
O        O      0.220533333333     0.963233333333     0.296566666667     0          
O        O      0.234433333333     0.901100000000     0.000000000000     0          
T        Si     0.210533333333     0.939233333333     0.000000000000     0          
O        O      0.296566666667     0.887200000000     0.036766666667     0          
T        Si     0.272566666667     0.877200000000     0.000000000000     0          
O        O      0.112800000000     0.963233333333     0.036766666667     0          
T        Si     0.122800000000     0.939233333333     0.000000000000     0          
O        O      0.220533333333     0.703433333333     0.036766666667     0          
T        Si     0.210533333333     0.727433333333     0.000000000000     0          
O        O      0.000000000000     0.737400000000     0.500000000000     0          
O        O      0.036766666667     0.703433333333     0.446133333333     0          
O        O      0.000000000000     0.765566666667     0.432233333333     0          
T        Si     0.000000000000     0.727433333333     0.456133333333     0          
O        O      0.262600000000     0.666666666667     0.500000000000     0          
O        O      0.296566666667     0.703433333333     0.446133333333     0          
O        O      0.234433333333     0.666666666667     0.432233333333     0          
T        Si     0.272566666667     0.666666666667     0.456133333333     0          
O        O      0.000000000000     0.929266666667     0.500000000000     0          
O        O      0.296566666667     0.963233333333     0.446133333333     0          
O        O      0.000000000000     0.901100000000     0.432233333333     0          
T        Si     0.000000000000     0.939233333333     0.456133333333     0          
O        O      0.070733333333     0.666666666667     0.500000000000     0          
O        O      0.036766666667     0.963233333333     0.446133333333     0          
O        O      0.098900000000     0.666666666667     0.432233333333     0          
T        Si     0.060766666667     0.666666666667     0.456133333333     0          
O        O      0.036766666667     0.963233333333     0.553866666667     0          
O        O      0.000000000000     0.901100000000     0.567766666667     0          
T        Si     0.000000000000     0.939233333333     0.543866666667     0          
O        O      0.036766666667     0.703433333333     0.553866666667     0          
O        O      0.098900000000     0.666666666667     0.567766666667     0          
T        Si     0.060766666667     0.666666666667     0.543866666667     0          
O        O      0.296566666667     0.703433333333     0.553866666667     0          
O        O      0.000000000000     0.765566666667     0.567766666667     0          
T        Si     0.000000000000     0.727433333333     0.543866666667     0          
O        O      0.296566666667     0.963233333333     0.553866666667     0          
O        O      0.234433333333     0.666666666667     0.567766666667     0          
T        Si     0.272566666667     0.666666666667     0.543866666667     0          
O        O      0.166666666667     0.666666666667     0.404066666667     0          
O        O      0.112800000000     0.703433333333     0.370100000000     0          
T        Si     0.122800000000     0.666666666667     0.394100000000     0          
O        O      0.000000000000     0.833333333333     0.404066666667     0          
O        O      0.296566666667     0.779466666667     0.370100000000     0          
T        Si     0.000000000000     0.789466666667     0.394100000000     0          
O        O      0.220533333333     0.963233333333     0.370100000000     0          
T        Si     0.210533333333     0.666666666667     0.394100000000     0          
O        O      0.036766666667     0.887200000000     0.370100000000     0          
T        Si     0.000000000000     0.877200000000     0.394100000000     0          
O        O      0.166666666667     0.666666666667     0.595933333333     0          
O        O      0.112800000000     0.963233333333     0.629900000000     0          
T        Si     0.122800000000     0.666666666667     0.605900000000     0          
O        O      0.000000000000     0.833333333333     0.595933333333     0          
O        O      0.036766666667     0.779466666667     0.629900000000     0          
T        Si     0.000000000000     0.789466666667     0.605900000000     0          
O        O      0.220533333333     0.703433333333     0.629900000000     0          
T        Si     0.210533333333     0.666666666667     0.605900000000     0          
O        O      0.296566666667     0.887200000000     0.629900000000     0          
T        Si     0.000000000000     0.877200000000     0.605900000000     0          
O        O      0.070733333333     0.833333333333     0.333333333333     0          
O        O      0.036766666667     0.779466666667     0.370100000000     0          
O        O      0.098900000000     0.765566666667     0.333333333333     0          
T        Si     0.060766666667     0.789466666667     0.333333333333     0          
O        O      0.036766666667     0.887200000000     0.629900000000     0          
O        O      0.098900000000     0.901100000000     0.333333333333     0          
T        Si     0.060766666667     0.877200000000     0.333333333333     0          
O        O      0.166666666667     0.737400000000     0.333333333333     0          
O        O      0.112800000000     0.703433333333     0.629900000000     0          
T        Si     0.122800000000     0.727433333333     0.333333333333     0          
O        O      0.262600000000     0.833333333333     0.333333333333     0          
O        O      0.296566666667     0.779466666667     0.629900000000     0          
O        O      0.234433333333     0.765566666667     0.333333333333     0          
T        Si     0.272566666667     0.789466666667     0.333333333333     0          
O        O      0.166666666667     0.929266666667     0.333333333333     0          
O        O      0.220533333333     0.963233333333     0.629900000000     0          
O        O      0.234433333333     0.901100000000     0.333333333333     0          
T        Si     0.210533333333     0.939233333333     0.333333333333     0          
O        O      0.296566666667     0.887200000000     0.370100000000     0          
T        Si     0.272566666667     0.877200000000     0.333333333333     0          
O        O      0.112800000000     0.963233333333     0.370100000000     0          
T        Si     0.122800000000     0.939233333333     0.333333333333     0          
O        O      0.220533333333     0.703433333333     0.370100000000     0          
T        Si     0.210533333333     0.727433333333     0.333333333333     0          
O        O      0.000000000000     0.737400000000     0.833333333333     0          
O        O      0.036766666667     0.703433333333     0.779466666667     0          
O        O      0.000000000000     0.765566666667     0.765566666667     0          
T        Si     0.000000000000     0.727433333333     0.789466666667     0          
O        O      0.262600000000     0.666666666667     0.833333333333     0          
O        O      0.296566666667     0.703433333333     0.779466666667     0          
O        O      0.234433333333     0.666666666667     0.765566666667     0          
T        Si     0.272566666667     0.666666666667     0.789466666667     0          
O        O      0.000000000000     0.929266666667     0.833333333333     0          
O        O      0.296566666667     0.963233333333     0.779466666667     0          
O        O      0.000000000000     0.901100000000     0.765566666667     0          
T        Si     0.000000000000     0.939233333333     0.789466666667     0          
O        O      0.070733333333     0.666666666667     0.833333333333     0          
O        O      0.036766666667     0.963233333333     0.779466666667     0          
O        O      0.098900000000     0.666666666667     0.765566666667     0          
T        Si     0.060766666667     0.666666666667     0.789466666667     0          
O        O      0.036766666667     0.963233333333     0.887200000000     0          
O        O      0.000000000000     0.901100000000     0.901100000000     0          
T        Si     0.000000000000     0.939233333333     0.877200000000     0          
O        O      0.036766666667     0.703433333333     0.887200000000     0          
O        O      0.098900000000     0.666666666667     0.901100000000     0          
T        Si     0.060766666667     0.666666666667     0.877200000000     0          
O        O      0.296566666667     0.703433333333     0.887200000000     0          
O        O      0.000000000000     0.765566666667     0.901100000000     0          
T        Si     0.000000000000     0.727433333333     0.877200000000     0          
O        O      0.296566666667     0.963233333333     0.887200000000     0          
O        O      0.234433333333     0.666666666667     0.901100000000     0          
T        Si     0.272566666667     0.666666666667     0.877200000000     0          
O        O      0.166666666667     0.666666666667     0.737400000000     0          
O        O      0.112800000000     0.703433333333     0.703433333333     0          
T        Si     0.122800000000     0.666666666667     0.727433333333     0          
O        O      0.000000000000     0.833333333333     0.737400000000     0          
O        O      0.296566666667     0.779466666667     0.703433333333     0          
T        Si     0.000000000000     0.789466666667     0.727433333333     0          
O        O      0.220533333333     0.963233333333     0.703433333333     0          
T        Si     0.210533333333     0.666666666667     0.727433333333     0          
O        O      0.036766666667     0.887200000000     0.703433333333     0          
T        Si     0.000000000000     0.877200000000     0.727433333333     0          
O        O      0.166666666667     0.666666666667     0.929266666667     0          
O        O      0.112800000000     0.963233333333     0.963233333333     0          
T        Si     0.122800000000     0.666666666667     0.939233333333     0          
O        O      0.000000000000     0.833333333333     0.929266666667     0          
O        O      0.036766666667     0.779466666667     0.963233333333     0          
T        Si     0.000000000000     0.789466666667     0.939233333333     0          
O        O      0.220533333333     0.703433333333     0.963233333333     0          
T        Si     0.210533333333     0.666666666667     0.939233333333     0          
O        O      0.296566666667     0.887200000000     0.963233333333     0          
T        Si     0.000000000000     0.877200000000     0.939233333333     0          
O        O      0.070733333333     0.833333333333     0.666666666667     0          
O        O      0.036766666667     0.779466666667     0.703433333333     0          
O        O      0.098900000000     0.765566666667     0.666666666667     0          
T        Si     0.060766666667     0.789466666667     0.666666666667     0          
O        O      0.036766666667     0.887200000000     0.963233333333     0          
O        O      0.098900000000     0.901100000000     0.666666666667     0          
T        Si     0.060766666667     0.877200000000     0.666666666667     0          
O        O      0.166666666667     0.737400000000     0.666666666667     0          
O        O      0.112800000000     0.703433333333     0.963233333333     0          
T        Si     0.122800000000     0.727433333333     0.666666666667     0          
O        O      0.262600000000     0.833333333333     0.666666666667     0          
O        O      0.296566666667     0.779466666667     0.963233333333     0          
O        O      0.234433333333     0.765566666667     0.666666666667     0          
T        Si     0.272566666667     0.789466666667     0.666666666667     0          
O        O      0.166666666667     0.929266666667     0.666666666667     0          
O        O      0.220533333333     0.963233333333     0.963233333333     0          
O        O      0.234433333333     0.901100000000     0.666666666667     0          
T        Si     0.210533333333     0.939233333333     0.666666666667     0          
O        O      0.296566666667     0.887200000000     0.703433333333     0          
T        Si     0.272566666667     0.877200000000     0.666666666667     0          
O        O      0.112800000000     0.963233333333     0.703433333333     0          
T        Si     0.122800000000     0.939233333333     0.666666666667     0          
O        O      0.220533333333     0.703433333333     0.703433333333     0          
T        Si     0.210533333333     0.727433333333     0.666666666667     0          
O        O      0.333333333333     0.070733333333     0.166666666667     0          
O        O      0.370100000000     0.036766666667     0.112800000000     0          
O        O      0.333333333333     0.098900000000     0.098900000000     0          
T        Si     0.333333333333     0.060766666667     0.122800000000     0          
O        O      0.595933333333     0.000000000000     0.166666666667     0          
O        O      0.629900000000     0.036766666667     0.112800000000     0          
O        O      0.567766666667     0.000000000000     0.098900000000     0          
T        Si     0.605900000000     0.000000000000     0.122800000000     0          
O        O      0.333333333333     0.262600000000     0.166666666667     0          
O        O      0.629900000000     0.296566666667     0.112800000000     0          
O        O      0.333333333333     0.234433333333     0.098900000000     0          
T        Si     0.333333333333     0.272566666667     0.122800000000     0          
O        O      0.404066666667     0.000000000000     0.166666666667     0          
O        O      0.370100000000     0.296566666667     0.112800000000     0          
O        O      0.432233333333     0.000000000000     0.098900000000     0          
T        Si     0.394100000000     0.000000000000     0.122800000000     0          
O        O      0.370100000000     0.296566666667     0.220533333333     0          
O        O      0.333333333333     0.234433333333     0.234433333333     0          
T        Si     0.333333333333     0.272566666667     0.210533333333     0          
O        O      0.370100000000     0.036766666667     0.220533333333     0          
O        O      0.432233333333     0.000000000000     0.234433333333     0          
T        Si     0.394100000000     0.000000000000     0.210533333333     0          
O        O      0.629900000000     0.036766666667     0.220533333333     0          
O        O      0.333333333333     0.098900000000     0.234433333333     0          
T        Si     0.333333333333     0.060766666667     0.210533333333     0          
O        O      0.629900000000     0.296566666667     0.220533333333     0          
O        O      0.567766666667     0.000000000000     0.234433333333     0          
T        Si     0.605900000000     0.000000000000     0.210533333333     0          
O        O      0.500000000000     0.000000000000     0.070733333333     0          
O        O      0.446133333333     0.036766666667     0.036766666667     0          
T        Si     0.456133333333     0.000000000000     0.060766666667     0          
O        O      0.333333333333     0.166666666667     0.070733333333     0          
O        O      0.629900000000     0.112800000000     0.036766666667     0          
T        Si     0.333333333333     0.122800000000     0.060766666667     0          
O        O      0.553866666667     0.296566666667     0.036766666667     0          
T        Si     0.543866666667     0.000000000000     0.060766666667     0          
O        O      0.370100000000     0.220533333333     0.036766666667     0          
T        Si     0.333333333333     0.210533333333     0.060766666667     0          
O        O      0.500000000000     0.000000000000     0.262600000000     0          
O        O      0.446133333333     0.296566666667     0.296566666667     0          
T        Si     0.456133333333     0.000000000000     0.272566666667     0          
O        O      0.333333333333     0.166666666667     0.262600000000     0          
O        O      0.370100000000     0.112800000000     0.296566666667     0          
T        Si     0.333333333333     0.122800000000     0.272566666667     0          
O        O      0.553866666667     0.036766666667     0.296566666667     0          
T        Si     0.543866666667     0.000000000000     0.272566666667     0          
O        O      0.629900000000     0.220533333333     0.296566666667     0          
T        Si     0.333333333333     0.210533333333     0.272566666667     0          
O        O      0.404066666667     0.166666666667     0.000000000000     0          
O        O      0.370100000000     0.112800000000     0.036766666667     0          
O        O      0.432233333333     0.098900000000     0.000000000000     0          
T        Si     0.394100000000     0.122800000000     0.000000000000     0          
O        O      0.370100000000     0.220533333333     0.296566666667     0          
O        O      0.432233333333     0.234433333333     0.000000000000     0          
T        Si     0.394100000000     0.210533333333     0.000000000000     0          
O        O      0.500000000000     0.070733333333     0.000000000000     0          
O        O      0.446133333333     0.036766666667     0.296566666667     0          
T        Si     0.456133333333     0.060766666667     0.000000000000     0          
O        O      0.595933333333     0.166666666667     0.000000000000     0          
O        O      0.629900000000     0.112800000000     0.296566666667     0          
O        O      0.567766666667     0.098900000000     0.000000000000     0          
T        Si     0.605900000000     0.122800000000     0.000000000000     0          
O        O      0.500000000000     0.262600000000     0.000000000000     0          
O        O      0.553866666667     0.296566666667     0.296566666667     0          
O        O      0.567766666667     0.234433333333     0.000000000000     0          
T        Si     0.543866666667     0.272566666667     0.000000000000     0          
O        O      0.629900000000     0.220533333333     0.036766666667     0          
T        Si     0.605900000000     0.210533333333     0.000000000000     0          
O        O      0.446133333333     0.296566666667     0.036766666667     0          
T        Si     0.456133333333     0.272566666667     0.000000000000     0          
O        O      0.553866666667     0.036766666667     0.036766666667     0          
T        Si     0.543866666667     0.060766666667     0.000000000000     0          
O        O      0.333333333333     0.070733333333     0.500000000000     0          
O        O      0.370100000000     0.036766666667     0.446133333333     0          
O        O      0.333333333333     0.098900000000     0.432233333333     0          
T        Si     0.333333333333     0.060766666667     0.456133333333     0          
O        O      0.595933333333     0.000000000000     0.500000000000     0          
O        O      0.629900000000     0.036766666667     0.446133333333     0          
O        O      0.567766666667     0.000000000000     0.432233333333     0          
T        Si     0.605900000000     0.000000000000     0.456133333333     0          
O        O      0.333333333333     0.262600000000     0.500000000000     0          
O        O      0.629900000000     0.296566666667     0.446133333333     0          
O        O      0.333333333333     0.234433333333     0.432233333333     0          
T        Si     0.333333333333     0.272566666667     0.456133333333     0          
O        O      0.404066666667     0.000000000000     0.500000000000     0          
O        O      0.370100000000     0.296566666667     0.446133333333     0          
O        O      0.432233333333     0.000000000000     0.432233333333     0          
T        Si     0.394100000000     0.000000000000     0.456133333333     0          
O        O      0.370100000000     0.296566666667     0.553866666667     0          
O        O      0.333333333333     0.234433333333     0.567766666667     0          
T        Si     0.333333333333     0.272566666667     0.543866666667     0          
O        O      0.370100000000     0.036766666667     0.553866666667     0          
O        O      0.432233333333     0.000000000000     0.567766666667     0          
T        Si     0.394100000000     0.000000000000     0.543866666667     0          
O        O      0.629900000000     0.036766666667     0.553866666667     0          
O        O      0.333333333333     0.098900000000     0.567766666667     0          
T        Si     0.333333333333     0.060766666667     0.543866666667     0          
O        O      0.629900000000     0.296566666667     0.553866666667     0          
O        O      0.567766666667     0.000000000000     0.567766666667     0          
T        Si     0.605900000000     0.000000000000     0.543866666667     0          
O        O      0.500000000000     0.000000000000     0.404066666667     0          
O        O      0.446133333333     0.036766666667     0.370100000000     0          
T        Si     0.456133333333     0.000000000000     0.394100000000     0          
O        O      0.333333333333     0.166666666667     0.404066666667     0          
O        O      0.629900000000     0.112800000000     0.370100000000     0          
T        Si     0.333333333333     0.122800000000     0.394100000000     0          
O        O      0.553866666667     0.296566666667     0.370100000000     0          
T        Si     0.543866666667     0.000000000000     0.394100000000     0          
O        O      0.370100000000     0.220533333333     0.370100000000     0          
T        Si     0.333333333333     0.210533333333     0.394100000000     0          
O        O      0.500000000000     0.000000000000     0.595933333333     0          
O        O      0.446133333333     0.296566666667     0.629900000000     0          
T        Si     0.456133333333     0.000000000000     0.605900000000     0          
O        O      0.333333333333     0.166666666667     0.595933333333     0          
O        O      0.370100000000     0.112800000000     0.629900000000     0          
T        Si     0.333333333333     0.122800000000     0.605900000000     0          
O        O      0.553866666667     0.036766666667     0.629900000000     0          
T        Si     0.543866666667     0.000000000000     0.605900000000     0          
O        O      0.629900000000     0.220533333333     0.629900000000     0          
T        Si     0.333333333333     0.210533333333     0.605900000000     0          
O        O      0.404066666667     0.166666666667     0.333333333333     0          
O        O      0.370100000000     0.112800000000     0.370100000000     0          
O        O      0.432233333333     0.098900000000     0.333333333333     0          
T        Si     0.394100000000     0.122800000000     0.333333333333     0          
O        O      0.370100000000     0.220533333333     0.629900000000     0          
O        O      0.432233333333     0.234433333333     0.333333333333     0          
T        Si     0.394100000000     0.210533333333     0.333333333333     0          
O        O      0.500000000000     0.070733333333     0.333333333333     0          
O        O      0.446133333333     0.036766666667     0.629900000000     0          
T        Si     0.456133333333     0.060766666667     0.333333333333     0          
O        O      0.595933333333     0.166666666667     0.333333333333     0          
O        O      0.629900000000     0.112800000000     0.629900000000     0          
O        O      0.567766666667     0.098900000000     0.333333333333     0          
T        Si     0.605900000000     0.122800000000     0.333333333333     0          
O        O      0.500000000000     0.262600000000     0.333333333333     0          
O        O      0.553866666667     0.296566666667     0.629900000000     0          
O        O      0.567766666667     0.234433333333     0.333333333333     0          
T        Si     0.543866666667     0.272566666667     0.333333333333     0          
O        O      0.629900000000     0.220533333333     0.370100000000     0          
T        Si     0.605900000000     0.210533333333     0.333333333333     0          
O        O      0.446133333333     0.296566666667     0.370100000000     0          
T        Si     0.456133333333     0.272566666667     0.333333333333     0          
O        O      0.553866666667     0.036766666667     0.370100000000     0          
T        Si     0.543866666667     0.060766666667     0.333333333333     0          
O        O      0.333333333333     0.070733333333     0.833333333333     0          
O        O      0.370100000000     0.036766666667     0.779466666667     0          
O        O      0.333333333333     0.098900000000     0.765566666667     0          
T        Si     0.333333333333     0.060766666667     0.789466666667     0          
O        O      0.595933333333     0.000000000000     0.833333333333     0          
O        O      0.629900000000     0.036766666667     0.779466666667     0          
O        O      0.567766666667     0.000000000000     0.765566666667     0          
T        Si     0.605900000000     0.000000000000     0.789466666667     0          
O        O      0.333333333333     0.262600000000     0.833333333333     0          
O        O      0.629900000000     0.296566666667     0.779466666667     0          
O        O      0.333333333333     0.234433333333     0.765566666667     0          
T        Si     0.333333333333     0.272566666667     0.789466666667     0          
O        O      0.404066666667     0.000000000000     0.833333333333     0          
O        O      0.370100000000     0.296566666667     0.779466666667     0          
O        O      0.432233333333     0.000000000000     0.765566666667     0          
T        Si     0.394100000000     0.000000000000     0.789466666667     0          
O        O      0.370100000000     0.296566666667     0.887200000000     0          
O        O      0.333333333333     0.234433333333     0.901100000000     0          
T        Si     0.333333333333     0.272566666667     0.877200000000     0          
O        O      0.370100000000     0.036766666667     0.887200000000     0          
O        O      0.432233333333     0.000000000000     0.901100000000     0          
T        Si     0.394100000000     0.000000000000     0.877200000000     0          
O        O      0.629900000000     0.036766666667     0.887200000000     0          
O        O      0.333333333333     0.098900000000     0.901100000000     0          
T        Si     0.333333333333     0.060766666667     0.877200000000     0          
O        O      0.629900000000     0.296566666667     0.887200000000     0          
O        O      0.567766666667     0.000000000000     0.901100000000     0          
T        Si     0.605900000000     0.000000000000     0.877200000000     0          
O        O      0.500000000000     0.000000000000     0.737400000000     0          
O        O      0.446133333333     0.036766666667     0.703433333333     0          
T        Si     0.456133333333     0.000000000000     0.727433333333     0          
O        O      0.333333333333     0.166666666667     0.737400000000     0          
O        O      0.629900000000     0.112800000000     0.703433333333     0          
T        Si     0.333333333333     0.122800000000     0.727433333333     0          
O        O      0.553866666667     0.296566666667     0.703433333333     0          
T        Si     0.543866666667     0.000000000000     0.727433333333     0          
O        O      0.370100000000     0.220533333333     0.703433333333     0          
T        Si     0.333333333333     0.210533333333     0.727433333333     0          
O        O      0.500000000000     0.000000000000     0.929266666667     0          
O        O      0.446133333333     0.296566666667     0.963233333333     0          
T        Si     0.456133333333     0.000000000000     0.939233333333     0          
O        O      0.333333333333     0.166666666667     0.929266666667     0          
O        O      0.370100000000     0.112800000000     0.963233333333     0          
T        Si     0.333333333333     0.122800000000     0.939233333333     0          
O        O      0.553866666667     0.036766666667     0.963233333333     0          
T        Si     0.543866666667     0.000000000000     0.939233333333     0          
O        O      0.629900000000     0.220533333333     0.963233333333     0          
T        Si     0.333333333333     0.210533333333     0.939233333333     0          
O        O      0.404066666667     0.166666666667     0.666666666667     0          
O        O      0.370100000000     0.112800000000     0.703433333333     0          
O        O      0.432233333333     0.098900000000     0.666666666667     0          
T        Si     0.394100000000     0.122800000000     0.666666666667     0          
O        O      0.370100000000     0.220533333333     0.963233333333     0          
O        O      0.432233333333     0.234433333333     0.666666666667     0          
T        Si     0.394100000000     0.210533333333     0.666666666667     0          
O        O      0.500000000000     0.070733333333     0.666666666667     0          
O        O      0.446133333333     0.036766666667     0.963233333333     0          
T        Si     0.456133333333     0.060766666667     0.666666666667     0          
O        O      0.595933333333     0.166666666667     0.666666666667     0          
O        O      0.629900000000     0.112800000000     0.963233333333     0          
O        O      0.567766666667     0.098900000000     0.666666666667     0          
T        Si     0.605900000000     0.122800000000     0.666666666667     0          
O        O      0.500000000000     0.262600000000     0.666666666667     0          
O        O      0.553866666667     0.296566666667     0.963233333333     0          
O        O      0.567766666667     0.234433333333     0.666666666667     0          
T        Si     0.543866666667     0.272566666667     0.666666666667     0          
O        O      0.629900000000     0.220533333333     0.703433333333     0          
T        Si     0.605900000000     0.210533333333     0.666666666667     0          
O        O      0.446133333333     0.296566666667     0.703433333333     0          
T        Si     0.456133333333     0.272566666667     0.666666666667     0          
O        O      0.553866666667     0.036766666667     0.703433333333     0          
T        Si     0.543866666667     0.060766666667     0.666666666667     0          
O        O      0.333333333333     0.404066666667     0.166666666667     0          
O        O      0.370100000000     0.370100000000     0.112800000000     0          
O        O      0.333333333333     0.432233333333     0.098900000000     0          
T        Si     0.333333333333     0.394100000000     0.122800000000     0          
O        O      0.595933333333     0.333333333333     0.166666666667     0          
O        O      0.629900000000     0.370100000000     0.112800000000     0          
O        O      0.567766666667     0.333333333333     0.098900000000     0          
T        Si     0.605900000000     0.333333333333     0.122800000000     0          
O        O      0.333333333333     0.595933333333     0.166666666667     0          
O        O      0.629900000000     0.629900000000     0.112800000000     0          
O        O      0.333333333333     0.567766666667     0.098900000000     0          
T        Si     0.333333333333     0.605900000000     0.122800000000     0          
O        O      0.404066666667     0.333333333333     0.166666666667     0          
O        O      0.370100000000     0.629900000000     0.112800000000     0          
O        O      0.432233333333     0.333333333333     0.098900000000     0          
T        Si     0.394100000000     0.333333333333     0.122800000000     0          
O        O      0.370100000000     0.629900000000     0.220533333333     0          
O        O      0.333333333333     0.567766666667     0.234433333333     0          
T        Si     0.333333333333     0.605900000000     0.210533333333     0          
O        O      0.370100000000     0.370100000000     0.220533333333     0          
O        O      0.432233333333     0.333333333333     0.234433333333     0          
T        Si     0.394100000000     0.333333333333     0.210533333333     0          
O        O      0.629900000000     0.370100000000     0.220533333333     0          
O        O      0.333333333333     0.432233333333     0.234433333333     0          
T        Si     0.333333333333     0.394100000000     0.210533333333     0          
O        O      0.629900000000     0.629900000000     0.220533333333     0          
O        O      0.567766666667     0.333333333333     0.234433333333     0          
T        Si     0.605900000000     0.333333333333     0.210533333333     0          
O        O      0.500000000000     0.333333333333     0.070733333333     0          
O        O      0.446133333333     0.370100000000     0.036766666667     0          
T        Si     0.456133333333     0.333333333333     0.060766666667     0          
O        O      0.333333333333     0.500000000000     0.070733333333     0          
O        O      0.629900000000     0.446133333333     0.036766666667     0          
T        Si     0.333333333333     0.456133333333     0.060766666667     0          
O        O      0.553866666667     0.629900000000     0.036766666667     0          
T        Si     0.543866666667     0.333333333333     0.060766666667     0          
O        O      0.370100000000     0.553866666667     0.036766666667     0          
T        Si     0.333333333333     0.543866666667     0.060766666667     0          
O        O      0.500000000000     0.333333333333     0.262600000000     0          
O        O      0.446133333333     0.629900000000     0.296566666667     0          
T        Si     0.456133333333     0.333333333333     0.272566666667     0          
O        O      0.333333333333     0.500000000000     0.262600000000     0          
O        O      0.370100000000     0.446133333333     0.296566666667     0          
T        Si     0.333333333333     0.456133333333     0.272566666667     0          
O        O      0.553866666667     0.370100000000     0.296566666667     0          
T        Si     0.543866666667     0.333333333333     0.272566666667     0          
O        O      0.629900000000     0.553866666667     0.296566666667     0          
T        Si     0.333333333333     0.543866666667     0.272566666667     0          
O        O      0.404066666667     0.500000000000     0.000000000000     0          
O        O      0.370100000000     0.446133333333     0.036766666667     0          
O        O      0.432233333333     0.432233333333     0.000000000000     0          
T        Si     0.394100000000     0.456133333333     0.000000000000     0          
O        O      0.370100000000     0.553866666667     0.296566666667     0          
O        O      0.432233333333     0.567766666667     0.000000000000     0          
T        Si     0.394100000000     0.543866666667     0.000000000000     0          
O        O      0.500000000000     0.404066666667     0.000000000000     0          
O        O      0.446133333333     0.370100000000     0.296566666667     0          
T        Si     0.456133333333     0.394100000000     0.000000000000     0          
O        O      0.595933333333     0.500000000000     0.000000000000     0          
O        O      0.629900000000     0.446133333333     0.296566666667     0          
O        O      0.567766666667     0.432233333333     0.000000000000     0          
T        Si     0.605900000000     0.456133333333     0.000000000000     0          
O        O      0.500000000000     0.595933333333     0.000000000000     0          
O        O      0.553866666667     0.629900000000     0.296566666667     0          
O        O      0.567766666667     0.567766666667     0.000000000000     0          
T        Si     0.543866666667     0.605900000000     0.000000000000     0          
O        O      0.629900000000     0.553866666667     0.036766666667     0          
T        Si     0.605900000000     0.543866666667     0.000000000000     0          
O        O      0.446133333333     0.629900000000     0.036766666667     0          
T        Si     0.456133333333     0.605900000000     0.000000000000     0          
O        O      0.553866666667     0.370100000000     0.036766666667     0          
T        Si     0.543866666667     0.394100000000     0.000000000000     0          
O        O      0.333333333333     0.404066666667     0.500000000000     0          
O        O      0.370100000000     0.370100000000     0.446133333333     0          
O        O      0.333333333333     0.432233333333     0.432233333333     0          
T        Si     0.333333333333     0.394100000000     0.456133333333     0          
O        O      0.595933333333     0.333333333333     0.500000000000     0          
O        O      0.629900000000     0.370100000000     0.446133333333     0          
O        O      0.567766666667     0.333333333333     0.432233333333     0          
T        Si     0.605900000000     0.333333333333     0.456133333333     0          
O        O      0.333333333333     0.595933333333     0.500000000000     0          
O        O      0.629900000000     0.629900000000     0.446133333333     0          
O        O      0.333333333333     0.567766666667     0.432233333333     0          
T        Si     0.333333333333     0.605900000000     0.456133333333     0          
O        O      0.404066666667     0.333333333333     0.500000000000     0          
O        O      0.370100000000     0.629900000000     0.446133333333     0          
O        O      0.432233333333     0.333333333333     0.432233333333     0          
T        Si     0.394100000000     0.333333333333     0.456133333333     0          
O        O      0.370100000000     0.629900000000     0.553866666667     0          
O        O      0.333333333333     0.567766666667     0.567766666667     0          
T        Si     0.333333333333     0.605900000000     0.543866666667     0          
O        O      0.370100000000     0.370100000000     0.553866666667     0          
O        O      0.432233333333     0.333333333333     0.567766666667     0          
T        Si     0.394100000000     0.333333333333     0.543866666667     0          
O        O      0.629900000000     0.370100000000     0.553866666667     0          
O        O      0.333333333333     0.432233333333     0.567766666667     0          
T        Si     0.333333333333     0.394100000000     0.543866666667     0          
O        O      0.629900000000     0.629900000000     0.553866666667     0          
O        O      0.567766666667     0.333333333333     0.567766666667     0          
T        Si     0.605900000000     0.333333333333     0.543866666667     0          
O        O      0.500000000000     0.333333333333     0.404066666667     0          
O        O      0.446133333333     0.370100000000     0.370100000000     0          
T        Si     0.456133333333     0.333333333333     0.394100000000     0          
O        O      0.333333333333     0.500000000000     0.404066666667     0          
O        O      0.629900000000     0.446133333333     0.370100000000     0          
T        Si     0.333333333333     0.456133333333     0.394100000000     0          
O        O      0.553866666667     0.629900000000     0.370100000000     0          
T        Si     0.543866666667     0.333333333333     0.394100000000     0          
O        O      0.370100000000     0.553866666667     0.370100000000     0          
T        Si     0.333333333333     0.543866666667     0.394100000000     0          
O        O      0.500000000000     0.333333333333     0.595933333333     0          
O        O      0.446133333333     0.629900000000     0.629900000000     0          
T        Si     0.456133333333     0.333333333333     0.605900000000     0          
O        O      0.333333333333     0.500000000000     0.595933333333     0          
O        O      0.370100000000     0.446133333333     0.629900000000     0          
T        Si     0.333333333333     0.456133333333     0.605900000000     0          
O        O      0.553866666667     0.370100000000     0.629900000000     0          
T        Si     0.543866666667     0.333333333333     0.605900000000     0          
O        O      0.629900000000     0.553866666667     0.629900000000     0          
T        Si     0.333333333333     0.543866666667     0.605900000000     0          
O        O      0.404066666667     0.500000000000     0.333333333333     0          
O        O      0.370100000000     0.446133333333     0.370100000000     0          
O        O      0.432233333333     0.432233333333     0.333333333333     0          
T        Si     0.394100000000     0.456133333333     0.333333333333     0          
O        O      0.370100000000     0.553866666667     0.629900000000     0          
O        O      0.432233333333     0.567766666667     0.333333333333     0          
T        Si     0.394100000000     0.543866666667     0.333333333333     0          
O        O      0.500000000000     0.404066666667     0.333333333333     0          
O        O      0.446133333333     0.370100000000     0.629900000000     0          
T        Si     0.456133333333     0.394100000000     0.333333333333     0          
O        O      0.595933333333     0.500000000000     0.333333333333     0          
O        O      0.629900000000     0.446133333333     0.629900000000     0          
O        O      0.567766666667     0.432233333333     0.333333333333     0          
T        Si     0.605900000000     0.456133333333     0.333333333333     0          
O        O      0.500000000000     0.595933333333     0.333333333333     0          
O        O      0.553866666667     0.629900000000     0.629900000000     0          
O        O      0.567766666667     0.567766666667     0.333333333333     0          
T        Si     0.543866666667     0.605900000000     0.333333333333     0          
O        O      0.629900000000     0.553866666667     0.370100000000     0          
T        Si     0.605900000000     0.543866666667     0.333333333333     0          
O        O      0.446133333333     0.629900000000     0.370100000000     0          
T        Si     0.456133333333     0.605900000000     0.333333333333     0          
O        O      0.553866666667     0.370100000000     0.370100000000     0          
T        Si     0.543866666667     0.394100000000     0.333333333333     0          
O        O      0.333333333333     0.404066666667     0.833333333333     0          
O        O      0.370100000000     0.370100000000     0.779466666667     0          
O        O      0.333333333333     0.432233333333     0.765566666667     0          
T        Si     0.333333333333     0.394100000000     0.789466666667     0          
O        O      0.595933333333     0.333333333333     0.833333333333     0          
O        O      0.629900000000     0.370100000000     0.779466666667     0          
O        O      0.567766666667     0.333333333333     0.765566666667     0          
T        Si     0.605900000000     0.333333333333     0.789466666667     0          
O        O      0.333333333333     0.595933333333     0.833333333333     0          
O        O      0.629900000000     0.629900000000     0.779466666667     0          
O        O      0.333333333333     0.567766666667     0.765566666667     0          
T        Si     0.333333333333     0.605900000000     0.789466666667     0          
O        O      0.404066666667     0.333333333333     0.833333333333     0          
O        O      0.370100000000     0.629900000000     0.779466666667     0          
O        O      0.432233333333     0.333333333333     0.765566666667     0          
T        Si     0.394100000000     0.333333333333     0.789466666667     0          
O        O      0.370100000000     0.629900000000     0.887200000000     0          
O        O      0.333333333333     0.567766666667     0.901100000000     0          
T        Si     0.333333333333     0.605900000000     0.877200000000     0          
O        O      0.370100000000     0.370100000000     0.887200000000     0          
O        O      0.432233333333     0.333333333333     0.901100000000     0          
T        Si     0.394100000000     0.333333333333     0.877200000000     0          
O        O      0.629900000000     0.370100000000     0.887200000000     0          
O        O      0.333333333333     0.432233333333     0.901100000000     0          
T        Si     0.333333333333     0.394100000000     0.877200000000     0          
O        O      0.629900000000     0.629900000000     0.887200000000     0          
O        O      0.567766666667     0.333333333333     0.901100000000     0          
T        Si     0.605900000000     0.333333333333     0.877200000000     0          
O        O      0.500000000000     0.333333333333     0.737400000000     0          
O        O      0.446133333333     0.370100000000     0.703433333333     0          
T        Si     0.456133333333     0.333333333333     0.727433333333     0          
O        O      0.333333333333     0.500000000000     0.737400000000     0          
O        O      0.629900000000     0.446133333333     0.703433333333     0          
T        Si     0.333333333333     0.456133333333     0.727433333333     0          
O        O      0.553866666667     0.629900000000     0.703433333333     0          
T        Si     0.543866666667     0.333333333333     0.727433333333     0          
O        O      0.370100000000     0.553866666667     0.703433333333     0          
T        Si     0.333333333333     0.543866666667     0.727433333333     0          
O        O      0.500000000000     0.333333333333     0.929266666667     0          
O        O      0.446133333333     0.629900000000     0.963233333333     0          
T        Si     0.456133333333     0.333333333333     0.939233333333     0          
O        O      0.333333333333     0.500000000000     0.929266666667     0          
O        O      0.370100000000     0.446133333333     0.963233333333     0          
T        Si     0.333333333333     0.456133333333     0.939233333333     0          
O        O      0.553866666667     0.370100000000     0.963233333333     0          
T        Si     0.543866666667     0.333333333333     0.939233333333     0          
O        O      0.629900000000     0.553866666667     0.963233333333     0          
T        Si     0.333333333333     0.543866666667     0.939233333333     0          
O        O      0.404066666667     0.500000000000     0.666666666667     0          
O        O      0.370100000000     0.446133333333     0.703433333333     0          
O        O      0.432233333333     0.432233333333     0.666666666667     0          
T        Si     0.394100000000     0.456133333333     0.666666666667     0          
O        O      0.370100000000     0.553866666667     0.963233333333     0          
O        O      0.432233333333     0.567766666667     0.666666666667     0          
T        Si     0.394100000000     0.543866666667     0.666666666667     0          
O        O      0.500000000000     0.404066666667     0.666666666667     0          
O        O      0.446133333333     0.370100000000     0.963233333333     0          
T        Si     0.456133333333     0.394100000000     0.666666666667     0          
O        O      0.595933333333     0.500000000000     0.666666666667     0          
O        O      0.629900000000     0.446133333333     0.963233333333     0          
O        O      0.567766666667     0.432233333333     0.666666666667     0          
T        Si     0.605900000000     0.456133333333     0.666666666667     0          
O        O      0.500000000000     0.595933333333     0.666666666667     0          
O        O      0.553866666667     0.629900000000     0.963233333333     0          
O        O      0.567766666667     0.567766666667     0.666666666667     0          
T        Si     0.543866666667     0.605900000000     0.666666666667     0          
O        O      0.629900000000     0.553866666667     0.703433333333     0          
T        Si     0.605900000000     0.543866666667     0.666666666667     0          
O        O      0.446133333333     0.629900000000     0.703433333333     0          
T        Si     0.456133333333     0.605900000000     0.666666666667     0          
O        O      0.553866666667     0.370100000000     0.703433333333     0          
T        Si     0.543866666667     0.394100000000     0.666666666667     0          
O        O      0.333333333333     0.737400000000     0.166666666667     0          
O        O      0.370100000000     0.703433333333     0.112800000000     0          
O        O      0.333333333333     0.765566666667     0.098900000000     0          
T        Si     0.333333333333     0.727433333333     0.122800000000     0          
O        O      0.595933333333     0.666666666667     0.166666666667     0          
O        O      0.629900000000     0.703433333333     0.112800000000     0          
O        O      0.567766666667     0.666666666667     0.098900000000     0          
T        Si     0.605900000000     0.666666666667     0.122800000000     0          
O        O      0.333333333333     0.929266666667     0.166666666667     0          
O        O      0.629900000000     0.963233333333     0.112800000000     0          
O        O      0.333333333333     0.901100000000     0.098900000000     0          
T        Si     0.333333333333     0.939233333333     0.122800000000     0          
O        O      0.404066666667     0.666666666667     0.166666666667     0          
O        O      0.370100000000     0.963233333333     0.112800000000     0          
O        O      0.432233333333     0.666666666667     0.098900000000     0          
T        Si     0.394100000000     0.666666666667     0.122800000000     0          
O        O      0.370100000000     0.963233333333     0.220533333333     0          
O        O      0.333333333333     0.901100000000     0.234433333333     0          
T        Si     0.333333333333     0.939233333333     0.210533333333     0          
O        O      0.370100000000     0.703433333333     0.220533333333     0          
O        O      0.432233333333     0.666666666667     0.234433333333     0          
T        Si     0.394100000000     0.666666666667     0.210533333333     0          
O        O      0.629900000000     0.703433333333     0.220533333333     0          
O        O      0.333333333333     0.765566666667     0.234433333333     0          
T        Si     0.333333333333     0.727433333333     0.210533333333     0          
O        O      0.629900000000     0.963233333333     0.220533333333     0          
O        O      0.567766666667     0.666666666667     0.234433333333     0          
T        Si     0.605900000000     0.666666666667     0.210533333333     0          
O        O      0.500000000000     0.666666666667     0.070733333333     0          
O        O      0.446133333333     0.703433333333     0.036766666667     0          
T        Si     0.456133333333     0.666666666667     0.060766666667     0          
O        O      0.333333333333     0.833333333333     0.070733333333     0          
O        O      0.629900000000     0.779466666667     0.036766666667     0          
T        Si     0.333333333333     0.789466666667     0.060766666667     0          
O        O      0.553866666667     0.963233333333     0.036766666667     0          
T        Si     0.543866666667     0.666666666667     0.060766666667     0          
O        O      0.370100000000     0.887200000000     0.036766666667     0          
T        Si     0.333333333333     0.877200000000     0.060766666667     0          
O        O      0.500000000000     0.666666666667     0.262600000000     0          
O        O      0.446133333333     0.963233333333     0.296566666667     0          
T        Si     0.456133333333     0.666666666667     0.272566666667     0          
O        O      0.333333333333     0.833333333333     0.262600000000     0          
O        O      0.370100000000     0.779466666667     0.296566666667     0          
T        Si     0.333333333333     0.789466666667     0.272566666667     0          
O        O      0.553866666667     0.703433333333     0.296566666667     0          
T        Si     0.543866666667     0.666666666667     0.272566666667     0          
O        O      0.629900000000     0.887200000000     0.296566666667     0          
T        Si     0.333333333333     0.877200000000     0.272566666667     0          
O        O      0.404066666667     0.833333333333     0.000000000000     0          
O        O      0.370100000000     0.779466666667     0.036766666667     0          
O        O      0.432233333333     0.765566666667     0.000000000000     0          
T        Si     0.394100000000     0.789466666667     0.000000000000     0          
O        O      0.370100000000     0.887200000000     0.296566666667     0          
O        O      0.432233333333     0.901100000000     0.000000000000     0          
T        Si     0.394100000000     0.877200000000     0.000000000000     0          
O        O      0.500000000000     0.737400000000     0.000000000000     0          
O        O      0.446133333333     0.703433333333     0.296566666667     0          
T        Si     0.456133333333     0.727433333333     0.000000000000     0          
O        O      0.595933333333     0.833333333333     0.000000000000     0          
O        O      0.629900000000     0.779466666667     0.296566666667     0          
O        O      0.567766666667     0.765566666667     0.000000000000     0          
T        Si     0.605900000000     0.789466666667     0.000000000000     0          
O        O      0.500000000000     0.929266666667     0.000000000000     0          
O        O      0.553866666667     0.963233333333     0.296566666667     0          
O        O      0.567766666667     0.901100000000     0.000000000000     0          
T        Si     0.543866666667     0.939233333333     0.000000000000     0          
O        O      0.629900000000     0.887200000000     0.036766666667     0          
T        Si     0.605900000000     0.877200000000     0.000000000000     0          
O        O      0.446133333333     0.963233333333     0.036766666667     0          
T        Si     0.456133333333     0.939233333333     0.000000000000     0          
O        O      0.553866666667     0.703433333333     0.036766666667     0          
T        Si     0.543866666667     0.727433333333     0.000000000000     0          
O        O      0.333333333333     0.737400000000     0.500000000000     0          
O        O      0.370100000000     0.703433333333     0.446133333333     0          
O        O      0.333333333333     0.765566666667     0.432233333333     0          
T        Si     0.333333333333     0.727433333333     0.456133333333     0          
O        O      0.595933333333     0.666666666667     0.500000000000     0          
O        O      0.629900000000     0.703433333333     0.446133333333     0          
O        O      0.567766666667     0.666666666667     0.432233333333     0          
T        Si     0.605900000000     0.666666666667     0.456133333333     0          
O        O      0.333333333333     0.929266666667     0.500000000000     0          
O        O      0.629900000000     0.963233333333     0.446133333333     0          
O        O      0.333333333333     0.901100000000     0.432233333333     0          
T        Si     0.333333333333     0.939233333333     0.456133333333     0          
O        O      0.404066666667     0.666666666667     0.500000000000     0          
O        O      0.370100000000     0.963233333333     0.446133333333     0          
O        O      0.432233333333     0.666666666667     0.432233333333     0          
T        Si     0.394100000000     0.666666666667     0.456133333333     0          
O        O      0.370100000000     0.963233333333     0.553866666667     0          
O        O      0.333333333333     0.901100000000     0.567766666667     0          
T        Si     0.333333333333     0.939233333333     0.543866666667     0          
O        O      0.370100000000     0.703433333333     0.553866666667     0          
O        O      0.432233333333     0.666666666667     0.567766666667     0          
T        Si     0.394100000000     0.666666666667     0.543866666667     0          
O        O      0.629900000000     0.703433333333     0.553866666667     0          
O        O      0.333333333333     0.765566666667     0.567766666667     0          
T        Si     0.333333333333     0.727433333333     0.543866666667     0          
O        O      0.629900000000     0.963233333333     0.553866666667     0          
O        O      0.567766666667     0.666666666667     0.567766666667     0          
T        Si     0.605900000000     0.666666666667     0.543866666667     0          
O        O      0.500000000000     0.666666666667     0.404066666667     0          
O        O      0.446133333333     0.703433333333     0.370100000000     0          
T        Si     0.456133333333     0.666666666667     0.394100000000     0          
O        O      0.333333333333     0.833333333333     0.404066666667     0          
O        O      0.629900000000     0.779466666667     0.370100000000     0          
T        Si     0.333333333333     0.789466666667     0.394100000000     0          
O        O      0.553866666667     0.963233333333     0.370100000000     0          
T        Si     0.543866666667     0.666666666667     0.394100000000     0          
O        O      0.370100000000     0.887200000000     0.370100000000     0          
T        Si     0.333333333333     0.877200000000     0.394100000000     0          
O        O      0.500000000000     0.666666666667     0.595933333333     0          
O        O      0.446133333333     0.963233333333     0.629900000000     0          
T        Si     0.456133333333     0.666666666667     0.605900000000     0          
O        O      0.333333333333     0.833333333333     0.595933333333     0          
O        O      0.370100000000     0.779466666667     0.629900000000     0          
T        Si     0.333333333333     0.789466666667     0.605900000000     0          
O        O      0.553866666667     0.703433333333     0.629900000000     0          
T        Si     0.543866666667     0.666666666667     0.605900000000     0          
O        O      0.629900000000     0.887200000000     0.629900000000     0          
T        Si     0.333333333333     0.877200000000     0.605900000000     0          
O        O      0.404066666667     0.833333333333     0.333333333333     0          
O        O      0.370100000000     0.779466666667     0.370100000000     0          
O        O      0.432233333333     0.765566666667     0.333333333333     0          
T        Si     0.394100000000     0.789466666667     0.333333333333     0          
O        O      0.370100000000     0.887200000000     0.629900000000     0          
O        O      0.432233333333     0.901100000000     0.333333333333     0          
T        Si     0.394100000000     0.877200000000     0.333333333333     0          
O        O      0.500000000000     0.737400000000     0.333333333333     0          
O        O      0.446133333333     0.703433333333     0.629900000000     0          
T        Si     0.456133333333     0.727433333333     0.333333333333     0          
O        O      0.595933333333     0.833333333333     0.333333333333     0          
O        O      0.629900000000     0.779466666667     0.629900000000     0          
O        O      0.567766666667     0.765566666667     0.333333333333     0          
T        Si     0.605900000000     0.789466666667     0.333333333333     0          
O        O      0.500000000000     0.929266666667     0.333333333333     0          
O        O      0.553866666667     0.963233333333     0.629900000000     0          
O        O      0.567766666667     0.901100000000     0.333333333333     0          
T        Si     0.543866666667     0.939233333333     0.333333333333     0          
O        O      0.629900000000     0.887200000000     0.370100000000     0          
T        Si     0.605900000000     0.877200000000     0.333333333333     0          
O        O      0.446133333333     0.963233333333     0.370100000000     0          
T        Si     0.456133333333     0.939233333333     0.333333333333     0          
O        O      0.553866666667     0.703433333333     0.370100000000     0          
T        Si     0.543866666667     0.727433333333     0.333333333333     0          
O        O      0.333333333333     0.737400000000     0.833333333333     0          
O        O      0.370100000000     0.703433333333     0.779466666667     0          
O        O      0.333333333333     0.765566666667     0.765566666667     0          
T        Si     0.333333333333     0.727433333333     0.789466666667     0          
O        O      0.595933333333     0.666666666667     0.833333333333     0          
O        O      0.629900000000     0.703433333333     0.779466666667     0          
O        O      0.567766666667     0.666666666667     0.765566666667     0          
T        Si     0.605900000000     0.666666666667     0.789466666667     0          
O        O      0.333333333333     0.929266666667     0.833333333333     0          
O        O      0.629900000000     0.963233333333     0.779466666667     0          
O        O      0.333333333333     0.901100000000     0.765566666667     0          
T        Si     0.333333333333     0.939233333333     0.789466666667     0          
O        O      0.404066666667     0.666666666667     0.833333333333     0          
O        O      0.370100000000     0.963233333333     0.779466666667     0          
O        O      0.432233333333     0.666666666667     0.765566666667     0          
T        Si     0.394100000000     0.666666666667     0.789466666667     0          
O        O      0.370100000000     0.963233333333     0.887200000000     0          
O        O      0.333333333333     0.901100000000     0.901100000000     0          
T        Si     0.333333333333     0.939233333333     0.877200000000     0          
O        O      0.370100000000     0.703433333333     0.887200000000     0          
O        O      0.432233333333     0.666666666667     0.901100000000     0          
T        Si     0.394100000000     0.666666666667     0.877200000000     0          
O        O      0.629900000000     0.703433333333     0.887200000000     0          
O        O      0.333333333333     0.765566666667     0.901100000000     0          
T        Si     0.333333333333     0.727433333333     0.877200000000     0          
O        O      0.629900000000     0.963233333333     0.887200000000     0          
O        O      0.567766666667     0.666666666667     0.901100000000     0          
T        Si     0.605900000000     0.666666666667     0.877200000000     0          
O        O      0.500000000000     0.666666666667     0.737400000000     0          
O        O      0.446133333333     0.703433333333     0.703433333333     0          
T        Si     0.456133333333     0.666666666667     0.727433333333     0          
O        O      0.333333333333     0.833333333333     0.737400000000     0          
O        O      0.629900000000     0.779466666667     0.703433333333     0          
T        Si     0.333333333333     0.789466666667     0.727433333333     0          
O        O      0.553866666667     0.963233333333     0.703433333333     0          
T        Si     0.543866666667     0.666666666667     0.727433333333     0          
O        O      0.370100000000     0.887200000000     0.703433333333     0          
T        Si     0.333333333333     0.877200000000     0.727433333333     0          
O        O      0.500000000000     0.666666666667     0.929266666667     0          
O        O      0.446133333333     0.963233333333     0.963233333333     0          
T        Si     0.456133333333     0.666666666667     0.939233333333     0          
O        O      0.333333333333     0.833333333333     0.929266666667     0          
O        O      0.370100000000     0.779466666667     0.963233333333     0          
T        Si     0.333333333333     0.789466666667     0.939233333333     0          
O        O      0.553866666667     0.703433333333     0.963233333333     0          
T        Si     0.543866666667     0.666666666667     0.939233333333     0          
O        O      0.629900000000     0.887200000000     0.963233333333     0          
T        Si     0.333333333333     0.877200000000     0.939233333333     0          
O        O      0.404066666667     0.833333333333     0.666666666667     0          
O        O      0.370100000000     0.779466666667     0.703433333333     0          
O        O      0.432233333333     0.765566666667     0.666666666667     0          
T        Si     0.394100000000     0.789466666667     0.666666666667     0          
O        O      0.370100000000     0.887200000000     0.963233333333     0          
O        O      0.432233333333     0.901100000000     0.666666666667     0          
T        Si     0.394100000000     0.877200000000     0.666666666667     0          
O        O      0.500000000000     0.737400000000     0.666666666667     0          
O        O      0.446133333333     0.703433333333     0.963233333333     0          
T        Si     0.456133333333     0.727433333333     0.666666666667     0          
O        O      0.595933333333     0.833333333333     0.666666666667     0          
O        O      0.629900000000     0.779466666667     0.963233333333     0          
O        O      0.567766666667     0.765566666667     0.666666666667     0          
T        Si     0.605900000000     0.789466666667     0.666666666667     0          
O        O      0.500000000000     0.929266666667     0.666666666667     0          
O        O      0.553866666667     0.963233333333     0.963233333333     0          
O        O      0.567766666667     0.901100000000     0.666666666667     0          
T        Si     0.543866666667     0.939233333333     0.666666666667     0          
O        O      0.629900000000     0.887200000000     0.703433333333     0          
T        Si     0.605900000000     0.877200000000     0.666666666667     0          
O        O      0.446133333333     0.963233333333     0.703433333333     0          
T        Si     0.456133333333     0.939233333333     0.666666666667     0          
O        O      0.553866666667     0.703433333333     0.703433333333     0          
T        Si     0.543866666667     0.727433333333     0.666666666667     0          
O        O      0.666666666667     0.070733333333     0.166666666667     0          
O        O      0.703433333333     0.036766666667     0.112800000000     0          
O        O      0.666666666667     0.098900000000     0.098900000000     0          
T        Si     0.666666666667     0.060766666667     0.122800000000     0          
O        O      0.929266666667     0.000000000000     0.166666666667     0          
O        O      0.963233333333     0.036766666667     0.112800000000     0          
O        O      0.901100000000     0.000000000000     0.098900000000     0          
T        Si     0.939233333333     0.000000000000     0.122800000000     0          
O        O      0.666666666667     0.262600000000     0.166666666667     0          
O        O      0.963233333333     0.296566666667     0.112800000000     0          
O        O      0.666666666667     0.234433333333     0.098900000000     0          
T        Si     0.666666666667     0.272566666667     0.122800000000     0          
O        O      0.737400000000     0.000000000000     0.166666666667     0          
O        O      0.703433333333     0.296566666667     0.112800000000     0          
O        O      0.765566666667     0.000000000000     0.098900000000     0          
T        Si     0.727433333333     0.000000000000     0.122800000000     0          
O        O      0.703433333333     0.296566666667     0.220533333333     0          
O        O      0.666666666667     0.234433333333     0.234433333333     0          
T        Si     0.666666666667     0.272566666667     0.210533333333     0          
O        O      0.703433333333     0.036766666667     0.220533333333     0          
O        O      0.765566666667     0.000000000000     0.234433333333     0          
T        Si     0.727433333333     0.000000000000     0.210533333333     0          
O        O      0.963233333333     0.036766666667     0.220533333333     0          
O        O      0.666666666667     0.098900000000     0.234433333333     0          
T        Si     0.666666666667     0.060766666667     0.210533333333     0          
O        O      0.963233333333     0.296566666667     0.220533333333     0          
O        O      0.901100000000     0.000000000000     0.234433333333     0          
T        Si     0.939233333333     0.000000000000     0.210533333333     0          
O        O      0.833333333333     0.000000000000     0.070733333333     0          
O        O      0.779466666667     0.036766666667     0.036766666667     0          
T        Si     0.789466666667     0.000000000000     0.060766666667     0          
O        O      0.666666666667     0.166666666667     0.070733333333     0          
O        O      0.963233333333     0.112800000000     0.036766666667     0          
T        Si     0.666666666667     0.122800000000     0.060766666667     0          
O        O      0.887200000000     0.296566666667     0.036766666667     0          
T        Si     0.877200000000     0.000000000000     0.060766666667     0          
O        O      0.703433333333     0.220533333333     0.036766666667     0          
T        Si     0.666666666667     0.210533333333     0.060766666667     0          
O        O      0.833333333333     0.000000000000     0.262600000000     0          
O        O      0.779466666667     0.296566666667     0.296566666667     0          
T        Si     0.789466666667     0.000000000000     0.272566666667     0          
O        O      0.666666666667     0.166666666667     0.262600000000     0          
O        O      0.703433333333     0.112800000000     0.296566666667     0          
T        Si     0.666666666667     0.122800000000     0.272566666667     0          
O        O      0.887200000000     0.036766666667     0.296566666667     0          
T        Si     0.877200000000     0.000000000000     0.272566666667     0          
O        O      0.963233333333     0.220533333333     0.296566666667     0          
T        Si     0.666666666667     0.210533333333     0.272566666667     0          
O        O      0.737400000000     0.166666666667     0.000000000000     0          
O        O      0.703433333333     0.112800000000     0.036766666667     0          
O        O      0.765566666667     0.098900000000     0.000000000000     0          
T        Si     0.727433333333     0.122800000000     0.000000000000     0          
O        O      0.703433333333     0.220533333333     0.296566666667     0          
O        O      0.765566666667     0.234433333333     0.000000000000     0          
T        Si     0.727433333333     0.210533333333     0.000000000000     0          
O        O      0.833333333333     0.070733333333     0.000000000000     0          
O        O      0.779466666667     0.036766666667     0.296566666667     0          
T        Si     0.789466666667     0.060766666667     0.000000000000     0          
O        O      0.929266666667     0.166666666667     0.000000000000     0          
O        O      0.963233333333     0.112800000000     0.296566666667     0          
O        O      0.901100000000     0.098900000000     0.000000000000     0          
T        Si     0.939233333333     0.122800000000     0.000000000000     0          
O        O      0.833333333333     0.262600000000     0.000000000000     0          
O        O      0.887200000000     0.296566666667     0.296566666667     0          
O        O      0.901100000000     0.234433333333     0.000000000000     0          
T        Si     0.877200000000     0.272566666667     0.000000000000     0          
O        O      0.963233333333     0.220533333333     0.036766666667     0          
T        Si     0.939233333333     0.210533333333     0.000000000000     0          
O        O      0.779466666667     0.296566666667     0.036766666667     0          
T        Si     0.789466666667     0.272566666667     0.000000000000     0          
O        O      0.887200000000     0.036766666667     0.036766666667     0          
T        Si     0.877200000000     0.060766666667     0.000000000000     0          
O        O      0.666666666667     0.070733333333     0.500000000000     0          
O        O      0.703433333333     0.036766666667     0.446133333333     0          
O        O      0.666666666667     0.098900000000     0.432233333333     0          
T        Si     0.666666666667     0.060766666667     0.456133333333     0          
O        O      0.929266666667     0.000000000000     0.500000000000     0          
O        O      0.963233333333     0.036766666667     0.446133333333     0          
O        O      0.901100000000     0.000000000000     0.432233333333     0          
T        Si     0.939233333333     0.000000000000     0.456133333333     0          
O        O      0.666666666667     0.262600000000     0.500000000000     0          
O        O      0.963233333333     0.296566666667     0.446133333333     0          
O        O      0.666666666667     0.234433333333     0.432233333333     0          
T        Si     0.666666666667     0.272566666667     0.456133333333     0          
O        O      0.737400000000     0.000000000000     0.500000000000     0          
O        O      0.703433333333     0.296566666667     0.446133333333     0          
O        O      0.765566666667     0.000000000000     0.432233333333     0          
T        Si     0.727433333333     0.000000000000     0.456133333333     0          
O        O      0.703433333333     0.296566666667     0.553866666667     0          
O        O      0.666666666667     0.234433333333     0.567766666667     0          
T        Si     0.666666666667     0.272566666667     0.543866666667     0          
O        O      0.703433333333     0.036766666667     0.553866666667     0          
O        O      0.765566666667     0.000000000000     0.567766666667     0          
T        Si     0.727433333333     0.000000000000     0.543866666667     0          
O        O      0.963233333333     0.036766666667     0.553866666667     0          
O        O      0.666666666667     0.098900000000     0.567766666667     0          
T        Si     0.666666666667     0.060766666667     0.543866666667     0          
O        O      0.963233333333     0.296566666667     0.553866666667     0          
O        O      0.901100000000     0.000000000000     0.567766666667     0          
T        Si     0.939233333333     0.000000000000     0.543866666667     0          
O        O      0.833333333333     0.000000000000     0.404066666667     0          
O        O      0.779466666667     0.036766666667     0.370100000000     0          
T        Si     0.789466666667     0.000000000000     0.394100000000     0          
O        O      0.666666666667     0.166666666667     0.404066666667     0          
O        O      0.963233333333     0.112800000000     0.370100000000     0          
T        Si     0.666666666667     0.122800000000     0.394100000000     0          
O        O      0.887200000000     0.296566666667     0.370100000000     0          
T        Si     0.877200000000     0.000000000000     0.394100000000     0          
O        O      0.703433333333     0.220533333333     0.370100000000     0          
T        Si     0.666666666667     0.210533333333     0.394100000000     0          
O        O      0.833333333333     0.000000000000     0.595933333333     0          
O        O      0.779466666667     0.296566666667     0.629900000000     0          
T        Si     0.789466666667     0.000000000000     0.605900000000     0          
O        O      0.666666666667     0.166666666667     0.595933333333     0          
O        O      0.703433333333     0.112800000000     0.629900000000     0          
T        Si     0.666666666667     0.122800000000     0.605900000000     0          
O        O      0.887200000000     0.036766666667     0.629900000000     0          
T        Si     0.877200000000     0.000000000000     0.605900000000     0          
O        O      0.963233333333     0.220533333333     0.629900000000     0          
T        Si     0.666666666667     0.210533333333     0.605900000000     0          
O        O      0.737400000000     0.166666666667     0.333333333333     0          
O        O      0.703433333333     0.112800000000     0.370100000000     0          
O        O      0.765566666667     0.098900000000     0.333333333333     0          
T        Si     0.727433333333     0.122800000000     0.333333333333     0          
O        O      0.703433333333     0.220533333333     0.629900000000     0          
O        O      0.765566666667     0.234433333333     0.333333333333     0          
T        Si     0.727433333333     0.210533333333     0.333333333333     0          
O        O      0.833333333333     0.070733333333     0.333333333333     0          
O        O      0.779466666667     0.036766666667     0.629900000000     0          
T        Si     0.789466666667     0.060766666667     0.333333333333     0          
O        O      0.929266666667     0.166666666667     0.333333333333     0          
O        O      0.963233333333     0.112800000000     0.629900000000     0          
O        O      0.901100000000     0.098900000000     0.333333333333     0          
T        Si     0.939233333333     0.122800000000     0.333333333333     0          
O        O      0.833333333333     0.262600000000     0.333333333333     0          
O        O      0.887200000000     0.296566666667     0.629900000000     0          
O        O      0.901100000000     0.234433333333     0.333333333333     0          
T        Si     0.877200000000     0.272566666667     0.333333333333     0          
O        O      0.963233333333     0.220533333333     0.370100000000     0          
T        Si     0.939233333333     0.210533333333     0.333333333333     0          
O        O      0.779466666667     0.296566666667     0.370100000000     0          
T        Si     0.789466666667     0.272566666667     0.333333333333     0          
O        O      0.887200000000     0.036766666667     0.370100000000     0          
T        Si     0.877200000000     0.060766666667     0.333333333333     0          
O        O      0.666666666667     0.070733333333     0.833333333333     0          
O        O      0.703433333333     0.036766666667     0.779466666667     0          
O        O      0.666666666667     0.098900000000     0.765566666667     0          
T        Si     0.666666666667     0.060766666667     0.789466666667     0          
O        O      0.929266666667     0.000000000000     0.833333333333     0          
O        O      0.963233333333     0.036766666667     0.779466666667     0          
O        O      0.901100000000     0.000000000000     0.765566666667     0          
T        Si     0.939233333333     0.000000000000     0.789466666667     0          
O        O      0.666666666667     0.262600000000     0.833333333333     0          
O        O      0.963233333333     0.296566666667     0.779466666667     0          
O        O      0.666666666667     0.234433333333     0.765566666667     0          
T        Si     0.666666666667     0.272566666667     0.789466666667     0          
O        O      0.737400000000     0.000000000000     0.833333333333     0          
O        O      0.703433333333     0.296566666667     0.779466666667     0          
O        O      0.765566666667     0.000000000000     0.765566666667     0          
T        Si     0.727433333333     0.000000000000     0.789466666667     0          
O        O      0.703433333333     0.296566666667     0.887200000000     0          
O        O      0.666666666667     0.234433333333     0.901100000000     0          
T        Si     0.666666666667     0.272566666667     0.877200000000     0          
O        O      0.703433333333     0.036766666667     0.887200000000     0          
O        O      0.765566666667     0.000000000000     0.901100000000     0          
T        Si     0.727433333333     0.000000000000     0.877200000000     0          
O        O      0.963233333333     0.036766666667     0.887200000000     0          
O        O      0.666666666667     0.098900000000     0.901100000000     0          
T        Si     0.666666666667     0.060766666667     0.877200000000     0          
O        O      0.963233333333     0.296566666667     0.887200000000     0          
O        O      0.901100000000     0.000000000000     0.901100000000     0          
T        Si     0.939233333333     0.000000000000     0.877200000000     0          
O        O      0.833333333333     0.000000000000     0.737400000000     0          
O        O      0.779466666667     0.036766666667     0.703433333333     0          
T        Si     0.789466666667     0.000000000000     0.727433333333     0          
O        O      0.666666666667     0.166666666667     0.737400000000     0          
O        O      0.963233333333     0.112800000000     0.703433333333     0          
T        Si     0.666666666667     0.122800000000     0.727433333333     0          
O        O      0.887200000000     0.296566666667     0.703433333333     0          
T        Si     0.877200000000     0.000000000000     0.727433333333     0          
O        O      0.703433333333     0.220533333333     0.703433333333     0          
T        Si     0.666666666667     0.210533333333     0.727433333333     0          
O        O      0.833333333333     0.000000000000     0.929266666667     0          
O        O      0.779466666667     0.296566666667     0.963233333333     0          
T        Si     0.789466666667     0.000000000000     0.939233333333     0          
O        O      0.666666666667     0.166666666667     0.929266666667     0          
O        O      0.703433333333     0.112800000000     0.963233333333     0          
T        Si     0.666666666667     0.122800000000     0.939233333333     0          
O        O      0.887200000000     0.036766666667     0.963233333333     0          
T        Si     0.877200000000     0.000000000000     0.939233333333     0          
O        O      0.963233333333     0.220533333333     0.963233333333     0          
T        Si     0.666666666667     0.210533333333     0.939233333333     0          
O        O      0.737400000000     0.166666666667     0.666666666667     0          
O        O      0.703433333333     0.112800000000     0.703433333333     0          
O        O      0.765566666667     0.098900000000     0.666666666667     0          
T        Si     0.727433333333     0.122800000000     0.666666666667     0          
O        O      0.703433333333     0.220533333333     0.963233333333     0          
O        O      0.765566666667     0.234433333333     0.666666666667     0          
T        Si     0.727433333333     0.210533333333     0.666666666667     0          
O        O      0.833333333333     0.070733333333     0.666666666667     0          
O        O      0.779466666667     0.036766666667     0.963233333333     0          
T        Si     0.789466666667     0.060766666667     0.666666666667     0          
O        O      0.929266666667     0.166666666667     0.666666666667     0          
O        O      0.963233333333     0.112800000000     0.963233333333     0          
O        O      0.901100000000     0.098900000000     0.666666666667     0          
T        Si     0.939233333333     0.122800000000     0.666666666667     0          
O        O      0.833333333333     0.262600000000     0.666666666667     0          
O        O      0.887200000000     0.296566666667     0.963233333333     0          
O        O      0.901100000000     0.234433333333     0.666666666667     0          
T        Si     0.877200000000     0.272566666667     0.666666666667     0          
O        O      0.963233333333     0.220533333333     0.703433333333     0          
T        Si     0.939233333333     0.210533333333     0.666666666667     0          
O        O      0.779466666667     0.296566666667     0.703433333333     0          
T        Si     0.789466666667     0.272566666667     0.666666666667     0          
O        O      0.887200000000     0.036766666667     0.703433333333     0          
T        Si     0.877200000000     0.060766666667     0.666666666667     0          
O        O      0.666666666667     0.404066666667     0.166666666667     0          
O        O      0.703433333333     0.370100000000     0.112800000000     0          
O        O      0.666666666667     0.432233333333     0.098900000000     0          
T        Si     0.666666666667     0.394100000000     0.122800000000     0          
O        O      0.929266666667     0.333333333333     0.166666666667     0          
O        O      0.963233333333     0.370100000000     0.112800000000     0          
O        O      0.901100000000     0.333333333333     0.098900000000     0          
T        Si     0.939233333333     0.333333333333     0.122800000000     0          
O        O      0.666666666667     0.595933333333     0.166666666667     0          
O        O      0.963233333333     0.629900000000     0.112800000000     0          
O        O      0.666666666667     0.567766666667     0.098900000000     0          
T        Si     0.666666666667     0.605900000000     0.122800000000     0          
O        O      0.737400000000     0.333333333333     0.166666666667     0          
O        O      0.703433333333     0.629900000000     0.112800000000     0          
O        O      0.765566666667     0.333333333333     0.098900000000     0          
T        Si     0.727433333333     0.333333333333     0.122800000000     0          
O        O      0.703433333333     0.629900000000     0.220533333333     0          
O        O      0.666666666667     0.567766666667     0.234433333333     0          
T        Si     0.666666666667     0.605900000000     0.210533333333     0          
O        O      0.703433333333     0.370100000000     0.220533333333     0          
O        O      0.765566666667     0.333333333333     0.234433333333     0          
T        Si     0.727433333333     0.333333333333     0.210533333333     0          
O        O      0.963233333333     0.370100000000     0.220533333333     0          
O        O      0.666666666667     0.432233333333     0.234433333333     0          
T        Si     0.666666666667     0.394100000000     0.210533333333     0          
O        O      0.963233333333     0.629900000000     0.220533333333     0          
O        O      0.901100000000     0.333333333333     0.234433333333     0          
T        Si     0.939233333333     0.333333333333     0.210533333333     0          
O        O      0.833333333333     0.333333333333     0.070733333333     0          
O        O      0.779466666667     0.370100000000     0.036766666667     0          
T        Si     0.789466666667     0.333333333333     0.060766666667     0          
O        O      0.666666666667     0.500000000000     0.070733333333     0          
O        O      0.963233333333     0.446133333333     0.036766666667     0          
T        Si     0.666666666667     0.456133333333     0.060766666667     0          
O        O      0.887200000000     0.629900000000     0.036766666667     0          
T        Si     0.877200000000     0.333333333333     0.060766666667     0          
O        O      0.703433333333     0.553866666667     0.036766666667     0          
T        Si     0.666666666667     0.543866666667     0.060766666667     0          
O        O      0.833333333333     0.333333333333     0.262600000000     0          
O        O      0.779466666667     0.629900000000     0.296566666667     0          
T        Si     0.789466666667     0.333333333333     0.272566666667     0          
O        O      0.666666666667     0.500000000000     0.262600000000     0          
O        O      0.703433333333     0.446133333333     0.296566666667     0          
T        Si     0.666666666667     0.456133333333     0.272566666667     0          
O        O      0.887200000000     0.370100000000     0.296566666667     0          
T        Si     0.877200000000     0.333333333333     0.272566666667     0          
O        O      0.963233333333     0.553866666667     0.296566666667     0          
T        Si     0.666666666667     0.543866666667     0.272566666667     0          
O        O      0.737400000000     0.500000000000     0.000000000000     0          
O        O      0.703433333333     0.446133333333     0.036766666667     0          
O        O      0.765566666667     0.432233333333     0.000000000000     0          
T        Si     0.727433333333     0.456133333333     0.000000000000     0          
O        O      0.703433333333     0.553866666667     0.296566666667     0          
O        O      0.765566666667     0.567766666667     0.000000000000     0          
T        Si     0.727433333333     0.543866666667     0.000000000000     0          
O        O      0.833333333333     0.404066666667     0.000000000000     0          
O        O      0.779466666667     0.370100000000     0.296566666667     0          
T        Si     0.789466666667     0.394100000000     0.000000000000     0          
O        O      0.929266666667     0.500000000000     0.000000000000     0          
O        O      0.963233333333     0.446133333333     0.296566666667     0          
O        O      0.901100000000     0.432233333333     0.000000000000     0          
T        Si     0.939233333333     0.456133333333     0.000000000000     0          
O        O      0.833333333333     0.595933333333     0.000000000000     0          
O        O      0.887200000000     0.629900000000     0.296566666667     0          
O        O      0.901100000000     0.567766666667     0.000000000000     0          
T        Si     0.877200000000     0.605900000000     0.000000000000     0          
O        O      0.963233333333     0.553866666667     0.036766666667     0          
T        Si     0.939233333333     0.543866666667     0.000000000000     0          
O        O      0.779466666667     0.629900000000     0.036766666667     0          
T        Si     0.789466666667     0.605900000000     0.000000000000     0          
O        O      0.887200000000     0.370100000000     0.036766666667     0          
T        Si     0.877200000000     0.394100000000     0.000000000000     0          
O        O      0.666666666667     0.404066666667     0.500000000000     0          
O        O      0.703433333333     0.370100000000     0.446133333333     0          
O        O      0.666666666667     0.432233333333     0.432233333333     0          
T        Si     0.666666666667     0.394100000000     0.456133333333     0          
O        O      0.929266666667     0.333333333333     0.500000000000     0          
O        O      0.963233333333     0.370100000000     0.446133333333     0          
O        O      0.901100000000     0.333333333333     0.432233333333     0          
T        Si     0.939233333333     0.333333333333     0.456133333333     0          
O        O      0.666666666667     0.595933333333     0.500000000000     0          
O        O      0.963233333333     0.629900000000     0.446133333333     0          
O        O      0.666666666667     0.567766666667     0.432233333333     0          
T        Si     0.666666666667     0.605900000000     0.456133333333     0          
O        O      0.737400000000     0.333333333333     0.500000000000     0          
O        O      0.703433333333     0.629900000000     0.446133333333     0          
O        O      0.765566666667     0.333333333333     0.432233333333     0          
T        Si     0.727433333333     0.333333333333     0.456133333333     0          
O        O      0.703433333333     0.629900000000     0.553866666667     0          
O        O      0.666666666667     0.567766666667     0.567766666667     0          
T        Si     0.666666666667     0.605900000000     0.543866666667     0          
O        O      0.703433333333     0.370100000000     0.553866666667     0          
O        O      0.765566666667     0.333333333333     0.567766666667     0          
T        Si     0.727433333333     0.333333333333     0.543866666667     0          
O        O      0.963233333333     0.370100000000     0.553866666667     0          
O        O      0.666666666667     0.432233333333     0.567766666667     0          
T        Si     0.666666666667     0.394100000000     0.543866666667     0          
O        O      0.963233333333     0.629900000000     0.553866666667     0          
O        O      0.901100000000     0.333333333333     0.567766666667     0          
T        Si     0.939233333333     0.333333333333     0.543866666667     0          
O        O      0.833333333333     0.333333333333     0.404066666667     0          
O        O      0.779466666667     0.370100000000     0.370100000000     0          
T        Si     0.789466666667     0.333333333333     0.394100000000     0          
O        O      0.666666666667     0.500000000000     0.404066666667     0          
O        O      0.963233333333     0.446133333333     0.370100000000     0          
T        Si     0.666666666667     0.456133333333     0.394100000000     0          
O        O      0.887200000000     0.629900000000     0.370100000000     0          
T        Si     0.877200000000     0.333333333333     0.394100000000     0          
O        O      0.703433333333     0.553866666667     0.370100000000     0          
T        Si     0.666666666667     0.543866666667     0.394100000000     0          
O        O      0.833333333333     0.333333333333     0.595933333333     0          
O        O      0.779466666667     0.629900000000     0.629900000000     0          
T        Si     0.789466666667     0.333333333333     0.605900000000     0          
O        O      0.666666666667     0.500000000000     0.595933333333     0          
O        O      0.703433333333     0.446133333333     0.629900000000     0          
T        Si     0.666666666667     0.456133333333     0.605900000000     0          
O        O      0.887200000000     0.370100000000     0.629900000000     0          
T        Si     0.877200000000     0.333333333333     0.605900000000     0          
O        O      0.963233333333     0.553866666667     0.629900000000     0          
T        Si     0.666666666667     0.543866666667     0.605900000000     0          
O        O      0.737400000000     0.500000000000     0.333333333333     0          
O        O      0.703433333333     0.446133333333     0.370100000000     0          
O        O      0.765566666667     0.432233333333     0.333333333333     0          
T        Si     0.727433333333     0.456133333333     0.333333333333     0          
O        O      0.703433333333     0.553866666667     0.629900000000     0          
O        O      0.765566666667     0.567766666667     0.333333333333     0          
T        Si     0.727433333333     0.543866666667     0.333333333333     0          
O        O      0.833333333333     0.404066666667     0.333333333333     0          
O        O      0.779466666667     0.370100000000     0.629900000000     0          
T        Si     0.789466666667     0.394100000000     0.333333333333     0          
O        O      0.929266666667     0.500000000000     0.333333333333     0          
O        O      0.963233333333     0.446133333333     0.629900000000     0          
O        O      0.901100000000     0.432233333333     0.333333333333     0          
T        Si     0.939233333333     0.456133333333     0.333333333333     0          
O        O      0.833333333333     0.595933333333     0.333333333333     0          
O        O      0.887200000000     0.629900000000     0.629900000000     0          
O        O      0.901100000000     0.567766666667     0.333333333333     0          
T        Si     0.877200000000     0.605900000000     0.333333333333     0          
O        O      0.963233333333     0.553866666667     0.370100000000     0          
T        Si     0.939233333333     0.543866666667     0.333333333333     0          
O        O      0.779466666667     0.629900000000     0.370100000000     0          
T        Si     0.789466666667     0.605900000000     0.333333333333     0          
O        O      0.887200000000     0.370100000000     0.370100000000     0          
T        Si     0.877200000000     0.394100000000     0.333333333333     0          
O        O      0.666666666667     0.404066666667     0.833333333333     0          
O        O      0.703433333333     0.370100000000     0.779466666667     0          
O        O      0.666666666667     0.432233333333     0.765566666667     0          
T        Si     0.666666666667     0.394100000000     0.789466666667     0          
O        O      0.929266666667     0.333333333333     0.833333333333     0          
O        O      0.963233333333     0.370100000000     0.779466666667     0          
O        O      0.901100000000     0.333333333333     0.765566666667     0          
T        Si     0.939233333333     0.333333333333     0.789466666667     0          
O        O      0.666666666667     0.595933333333     0.833333333333     0          
O        O      0.963233333333     0.629900000000     0.779466666667     0          
O        O      0.666666666667     0.567766666667     0.765566666667     0          
T        Si     0.666666666667     0.605900000000     0.789466666667     0          
O        O      0.737400000000     0.333333333333     0.833333333333     0          
O        O      0.703433333333     0.629900000000     0.779466666667     0          
O        O      0.765566666667     0.333333333333     0.765566666667     0          
T        Si     0.727433333333     0.333333333333     0.789466666667     0          
O        O      0.703433333333     0.629900000000     0.887200000000     0          
O        O      0.666666666667     0.567766666667     0.901100000000     0          
T        Si     0.666666666667     0.605900000000     0.877200000000     0          
O        O      0.703433333333     0.370100000000     0.887200000000     0          
O        O      0.765566666667     0.333333333333     0.901100000000     0          
T        Si     0.727433333333     0.333333333333     0.877200000000     0          
O        O      0.963233333333     0.370100000000     0.887200000000     0          
O        O      0.666666666667     0.432233333333     0.901100000000     0          
T        Si     0.666666666667     0.394100000000     0.877200000000     0          
O        O      0.963233333333     0.629900000000     0.887200000000     0          
O        O      0.901100000000     0.333333333333     0.901100000000     0          
T        Si     0.939233333333     0.333333333333     0.877200000000     0          
O        O      0.833333333333     0.333333333333     0.737400000000     0          
O        O      0.779466666667     0.370100000000     0.703433333333     0          
T        Si     0.789466666667     0.333333333333     0.727433333333     0          
O        O      0.666666666667     0.500000000000     0.737400000000     0          
O        O      0.963233333333     0.446133333333     0.703433333333     0          
T        Si     0.666666666667     0.456133333333     0.727433333333     0          
O        O      0.887200000000     0.629900000000     0.703433333333     0          
T        Si     0.877200000000     0.333333333333     0.727433333333     0          
O        O      0.703433333333     0.553866666667     0.703433333333     0          
T        Si     0.666666666667     0.543866666667     0.727433333333     0          
O        O      0.833333333333     0.333333333333     0.929266666667     0          
O        O      0.779466666667     0.629900000000     0.963233333333     0          
T        Si     0.789466666667     0.333333333333     0.939233333333     0          
O        O      0.666666666667     0.500000000000     0.929266666667     0          
O        O      0.703433333333     0.446133333333     0.963233333333     0          
T        Si     0.666666666667     0.456133333333     0.939233333333     0          
O        O      0.887200000000     0.370100000000     0.963233333333     0          
T        Si     0.877200000000     0.333333333333     0.939233333333     0          
O        O      0.963233333333     0.553866666667     0.963233333333     0          
T        Si     0.666666666667     0.543866666667     0.939233333333     0          
O        O      0.737400000000     0.500000000000     0.666666666667     0          
O        O      0.703433333333     0.446133333333     0.703433333333     0          
O        O      0.765566666667     0.432233333333     0.666666666667     0          
T        Si     0.727433333333     0.456133333333     0.666666666667     0          
O        O      0.703433333333     0.553866666667     0.963233333333     0          
O        O      0.765566666667     0.567766666667     0.666666666667     0          
T        Si     0.727433333333     0.543866666667     0.666666666667     0          
O        O      0.833333333333     0.404066666667     0.666666666667     0          
O        O      0.779466666667     0.370100000000     0.963233333333     0          
T        Si     0.789466666667     0.394100000000     0.666666666667     0          
O        O      0.929266666667     0.500000000000     0.666666666667     0          
O        O      0.963233333333     0.446133333333     0.963233333333     0          
O        O      0.901100000000     0.432233333333     0.666666666667     0          
T        Si     0.939233333333     0.456133333333     0.666666666667     0          
O        O      0.833333333333     0.595933333333     0.666666666667     0          
O        O      0.887200000000     0.629900000000     0.963233333333     0          
O        O      0.901100000000     0.567766666667     0.666666666667     0          
T        Si     0.877200000000     0.605900000000     0.666666666667     0          
O        O      0.963233333333     0.553866666667     0.703433333333     0          
T        Si     0.939233333333     0.543866666667     0.666666666667     0          
O        O      0.779466666667     0.629900000000     0.703433333333     0          
T        Si     0.789466666667     0.605900000000     0.666666666667     0          
O        O      0.887200000000     0.370100000000     0.703433333333     0          
T        Si     0.877200000000     0.394100000000     0.666666666667     0          
O        O      0.666666666667     0.737400000000     0.166666666667     0          
O        O      0.703433333333     0.703433333333     0.112800000000     0          
O        O      0.666666666667     0.765566666667     0.098900000000     0          
T        Si     0.666666666667     0.727433333333     0.122800000000     0          
O        O      0.929266666667     0.666666666667     0.166666666667     0          
O        O      0.963233333333     0.703433333333     0.112800000000     0          
O        O      0.901100000000     0.666666666667     0.098900000000     0          
T        Si     0.939233333333     0.666666666667     0.122800000000     0          
O        O      0.666666666667     0.929266666667     0.166666666667     0          
O        O      0.963233333333     0.963233333333     0.112800000000     0          
O        O      0.666666666667     0.901100000000     0.098900000000     0          
T        Si     0.666666666667     0.939233333333     0.122800000000     0          
O        O      0.737400000000     0.666666666667     0.166666666667     0          
O        O      0.703433333333     0.963233333333     0.112800000000     0          
O        O      0.765566666667     0.666666666667     0.098900000000     0          
T        Si     0.727433333333     0.666666666667     0.122800000000     0          
O        O      0.703433333333     0.963233333333     0.220533333333     0          
O        O      0.666666666667     0.901100000000     0.234433333333     0          
T        Si     0.666666666667     0.939233333333     0.210533333333     0          
O        O      0.703433333333     0.703433333333     0.220533333333     0          
O        O      0.765566666667     0.666666666667     0.234433333333     0          
T        Si     0.727433333333     0.666666666667     0.210533333333     0          
O        O      0.963233333333     0.703433333333     0.220533333333     0          
O        O      0.666666666667     0.765566666667     0.234433333333     0          
T        Si     0.666666666667     0.727433333333     0.210533333333     0          
O        O      0.963233333333     0.963233333333     0.220533333333     0          
O        O      0.901100000000     0.666666666667     0.234433333333     0          
T        Si     0.939233333333     0.666666666667     0.210533333333     0          
O        O      0.833333333333     0.666666666667     0.070733333333     0          
O        O      0.779466666667     0.703433333333     0.036766666667     0          
T        Si     0.789466666667     0.666666666667     0.060766666667     0          
O        O      0.666666666667     0.833333333333     0.070733333333     0          
O        O      0.963233333333     0.779466666667     0.036766666667     0          
T        Si     0.666666666667     0.789466666667     0.060766666667     0          
O        O      0.887200000000     0.963233333333     0.036766666667     0          
T        Si     0.877200000000     0.666666666667     0.060766666667     0          
O        O      0.703433333333     0.887200000000     0.036766666667     0          
T        Si     0.666666666667     0.877200000000     0.060766666667     0          
O        O      0.833333333333     0.666666666667     0.262600000000     0          
O        O      0.779466666667     0.963233333333     0.296566666667     0          
T        Si     0.789466666667     0.666666666667     0.272566666667     0          
O        O      0.666666666667     0.833333333333     0.262600000000     0          
O        O      0.703433333333     0.779466666667     0.296566666667     0          
T        Si     0.666666666667     0.789466666667     0.272566666667     0          
O        O      0.887200000000     0.703433333333     0.296566666667     0          
T        Si     0.877200000000     0.666666666667     0.272566666667     0          
O        O      0.963233333333     0.887200000000     0.296566666667     0          
T        Si     0.666666666667     0.877200000000     0.272566666667     0          
O        O      0.737400000000     0.833333333333     0.000000000000     0          
O        O      0.703433333333     0.779466666667     0.036766666667     0          
O        O      0.765566666667     0.765566666667     0.000000000000     0          
T        Si     0.727433333333     0.789466666667     0.000000000000     0          
O        O      0.703433333333     0.887200000000     0.296566666667     0          
O        O      0.765566666667     0.901100000000     0.000000000000     0          
T        Si     0.727433333333     0.877200000000     0.000000000000     0          
O        O      0.833333333333     0.737400000000     0.000000000000     0          
O        O      0.779466666667     0.703433333333     0.296566666667     0          
T        Si     0.789466666667     0.727433333333     0.000000000000     0          
O        O      0.929266666667     0.833333333333     0.000000000000     0          
O        O      0.963233333333     0.779466666667     0.296566666667     0          
O        O      0.901100000000     0.765566666667     0.000000000000     0          
T        Si     0.939233333333     0.789466666667     0.000000000000     0          
O        O      0.833333333333     0.929266666667     0.000000000000     0          
O        O      0.887200000000     0.963233333333     0.296566666667     0          
O        O      0.901100000000     0.901100000000     0.000000000000     0          
T        Si     0.877200000000     0.939233333333     0.000000000000     0          
O        O      0.963233333333     0.887200000000     0.036766666667     0          
T        Si     0.939233333333     0.877200000000     0.000000000000     0          
O        O      0.779466666667     0.963233333333     0.036766666667     0          
T        Si     0.789466666667     0.939233333333     0.000000000000     0          
O        O      0.887200000000     0.703433333333     0.036766666667     0          
T        Si     0.877200000000     0.727433333333     0.000000000000     0          
O        O      0.666666666667     0.737400000000     0.500000000000     0          
O        O      0.703433333333     0.703433333333     0.446133333333     0          
O        O      0.666666666667     0.765566666667     0.432233333333     0          
T        Si     0.666666666667     0.727433333333     0.456133333333     0          
O        O      0.929266666667     0.666666666667     0.500000000000     0          
O        O      0.963233333333     0.703433333333     0.446133333333     0          
O        O      0.901100000000     0.666666666667     0.432233333333     0          
T        Si     0.939233333333     0.666666666667     0.456133333333     0          
O        O      0.666666666667     0.929266666667     0.500000000000     0          
O        O      0.963233333333     0.963233333333     0.446133333333     0          
O        O      0.666666666667     0.901100000000     0.432233333333     0          
T        Si     0.666666666667     0.939233333333     0.456133333333     0          
O        O      0.737400000000     0.666666666667     0.500000000000     0          
O        O      0.703433333333     0.963233333333     0.446133333333     0          
O        O      0.765566666667     0.666666666667     0.432233333333     0          
T        Si     0.727433333333     0.666666666667     0.456133333333     0          
O        O      0.703433333333     0.963233333333     0.553866666667     0          
O        O      0.666666666667     0.901100000000     0.567766666667     0          
T        Si     0.666666666667     0.939233333333     0.543866666667     0          
O        O      0.703433333333     0.703433333333     0.553866666667     0          
O        O      0.765566666667     0.666666666667     0.567766666667     0          
T        Si     0.727433333333     0.666666666667     0.543866666667     0          
O        O      0.963233333333     0.703433333333     0.553866666667     0          
O        O      0.666666666667     0.765566666667     0.567766666667     0          
T        Si     0.666666666667     0.727433333333     0.543866666667     0          
O        O      0.963233333333     0.963233333333     0.553866666667     0          
O        O      0.901100000000     0.666666666667     0.567766666667     0          
T        Si     0.939233333333     0.666666666667     0.543866666667     0          
O        O      0.833333333333     0.666666666667     0.404066666667     0          
O        O      0.779466666667     0.703433333333     0.370100000000     0          
T        Si     0.789466666667     0.666666666667     0.394100000000     0          
O        O      0.666666666667     0.833333333333     0.404066666667     0          
O        O      0.963233333333     0.779466666667     0.370100000000     0          
T        Si     0.666666666667     0.789466666667     0.394100000000     0          
O        O      0.887200000000     0.963233333333     0.370100000000     0          
T        Si     0.877200000000     0.666666666667     0.394100000000     0          
O        O      0.703433333333     0.887200000000     0.370100000000     0          
T        Si     0.666666666667     0.877200000000     0.394100000000     0          
O        O      0.833333333333     0.666666666667     0.595933333333     0          
O        O      0.779466666667     0.963233333333     0.629900000000     0          
T        Si     0.789466666667     0.666666666667     0.605900000000     0          
O        O      0.666666666667     0.833333333333     0.595933333333     0          
O        O      0.703433333333     0.779466666667     0.629900000000     0          
T        Si     0.666666666667     0.789466666667     0.605900000000     0          
O        O      0.887200000000     0.703433333333     0.629900000000     0          
T        Si     0.877200000000     0.666666666667     0.605900000000     0          
O        O      0.963233333333     0.887200000000     0.629900000000     0          
T        Si     0.666666666667     0.877200000000     0.605900000000     0          
O        O      0.737400000000     0.833333333333     0.333333333333     0          
O        O      0.703433333333     0.779466666667     0.370100000000     0          
O        O      0.765566666667     0.765566666667     0.333333333333     0          
T        Si     0.727433333333     0.789466666667     0.333333333333     0          
O        O      0.703433333333     0.887200000000     0.629900000000     0          
O        O      0.765566666667     0.901100000000     0.333333333333     0          
T        Si     0.727433333333     0.877200000000     0.333333333333     0          
O        O      0.833333333333     0.737400000000     0.333333333333     0          
O        O      0.779466666667     0.703433333333     0.629900000000     0          
T        Si     0.789466666667     0.727433333333     0.333333333333     0          
O        O      0.929266666667     0.833333333333     0.333333333333     0          
O        O      0.963233333333     0.779466666667     0.629900000000     0          
O        O      0.901100000000     0.765566666667     0.333333333333     0          
T        Si     0.939233333333     0.789466666667     0.333333333333     0          
O        O      0.833333333333     0.929266666667     0.333333333333     0          
O        O      0.887200000000     0.963233333333     0.629900000000     0          
O        O      0.901100000000     0.901100000000     0.333333333333     0          
T        Si     0.877200000000     0.939233333333     0.333333333333     0          
O        O      0.963233333333     0.887200000000     0.370100000000     0          
T        Si     0.939233333333     0.877200000000     0.333333333333     0          
O        O      0.779466666667     0.963233333333     0.370100000000     0          
T        Si     0.789466666667     0.939233333333     0.333333333333     0          
O        O      0.887200000000     0.703433333333     0.370100000000     0          
T        Si     0.877200000000     0.727433333333     0.333333333333     0          
O        O      0.666666666667     0.737400000000     0.833333333333     0          
O        O      0.703433333333     0.703433333333     0.779466666667     0          
O        O      0.666666666667     0.765566666667     0.765566666667     0          
T        Si     0.666666666667     0.727433333333     0.789466666667     0          
O        O      0.929266666667     0.666666666667     0.833333333333     0          
O        O      0.963233333333     0.703433333333     0.779466666667     0          
O        O      0.901100000000     0.666666666667     0.765566666667     0          
T        Si     0.939233333333     0.666666666667     0.789466666667     0          
O        O      0.666666666667     0.929266666667     0.833333333333     0          
O        O      0.963233333333     0.963233333333     0.779466666667     0          
O        O      0.666666666667     0.901100000000     0.765566666667     0          
T        Si     0.666666666667     0.939233333333     0.789466666667     0          
O        O      0.737400000000     0.666666666667     0.833333333333     0          
O        O      0.703433333333     0.963233333333     0.779466666667     0          
O        O      0.765566666667     0.666666666667     0.765566666667     0          
T        Si     0.727433333333     0.666666666667     0.789466666667     0          
O        O      0.703433333333     0.963233333333     0.887200000000     0          
O        O      0.666666666667     0.901100000000     0.901100000000     0          
T        Si     0.666666666667     0.939233333333     0.877200000000     0          
O        O      0.703433333333     0.703433333333     0.887200000000     0          
O        O      0.765566666667     0.666666666667     0.901100000000     0          
T        Si     0.727433333333     0.666666666667     0.877200000000     0          
O        O      0.963233333333     0.703433333333     0.887200000000     0          
O        O      0.666666666667     0.765566666667     0.901100000000     0          
T        Si     0.666666666667     0.727433333333     0.877200000000     0          
O        O      0.963233333333     0.963233333333     0.887200000000     0          
O        O      0.901100000000     0.666666666667     0.901100000000     0          
T        Si     0.939233333333     0.666666666667     0.877200000000     0          
O        O      0.833333333333     0.666666666667     0.737400000000     0          
O        O      0.779466666667     0.703433333333     0.703433333333     0          
T        Si     0.789466666667     0.666666666667     0.727433333333     0          
O        O      0.666666666667     0.833333333333     0.737400000000     0          
O        O      0.963233333333     0.779466666667     0.703433333333     0          
T        Si     0.666666666667     0.789466666667     0.727433333333     0          
O        O      0.887200000000     0.963233333333     0.703433333333     0          
T        Si     0.877200000000     0.666666666667     0.727433333333     0          
O        O      0.703433333333     0.887200000000     0.703433333333     0          
T        Si     0.666666666667     0.877200000000     0.727433333333     0          
O        O      0.833333333333     0.666666666667     0.929266666667     0          
O        O      0.779466666667     0.963233333333     0.963233333333     0          
T        Si     0.789466666667     0.666666666667     0.939233333333     0          
O        O      0.666666666667     0.833333333333     0.929266666667     0          
O        O      0.703433333333     0.779466666667     0.963233333333     0          
T        Si     0.666666666667     0.789466666667     0.939233333333     0          
O        O      0.887200000000     0.703433333333     0.963233333333     0          
T        Si     0.877200000000     0.666666666667     0.939233333333     0          
O        O      0.963233333333     0.887200000000     0.963233333333     0          
T        Si     0.666666666667     0.877200000000     0.939233333333     0          
O        O      0.737400000000     0.833333333333     0.666666666667     0          
O        O      0.703433333333     0.779466666667     0.703433333333     0          
O        O      0.765566666667     0.765566666667     0.666666666667     0          
T        Si     0.727433333333     0.789466666667     0.666666666667     0          
O        O      0.703433333333     0.887200000000     0.963233333333     0          
O        O      0.765566666667     0.901100000000     0.666666666667     0          
T        Si     0.727433333333     0.877200000000     0.666666666667     0          
O        O      0.833333333333     0.737400000000     0.666666666667     0          
O        O      0.779466666667     0.703433333333     0.963233333333     0          
T        Si     0.789466666667     0.727433333333     0.666666666667     0          
O        O      0.929266666667     0.833333333333     0.666666666667     0          
O        O      0.963233333333     0.779466666667     0.963233333333     0          
O        O      0.901100000000     0.765566666667     0.666666666667     0          
T        Si     0.939233333333     0.789466666667     0.666666666667     0          
O        O      0.833333333333     0.929266666667     0.666666666667     0          
O        O      0.887200000000     0.963233333333     0.963233333333     0          
O        O      0.901100000000     0.901100000000     0.666666666667     0          
T        Si     0.877200000000     0.939233333333     0.666666666667     0          
O        O      0.963233333333     0.887200000000     0.703433333333     0          
T        Si     0.939233333333     0.877200000000     0.666666666667     0          
O        O      0.779466666667     0.963233333333     0.703433333333     0          
T        Si     0.789466666667     0.939233333333     0.666666666667     0          
O        O      0.887200000000     0.703433333333     0.703433333333     0          
T        Si     0.877200000000     0.727433333333     0.666666666667     0          


