data_zeolite

_audit_creation_method RASPA-1.0
_audit_creation_date 2021-1-1
_audit_author_name ''

_cell_length_a    37.78
_cell_length_b    46.73
_cell_length_c    33.876
_cell_angle_alpha 90
_cell_angle_beta  90
_cell_angle_gamma 90
_cell_volume      59806.7

_symmetry_cell_setting          orthorhombic
_symmetry_space_group_name_Hall 'P 1'
_symmetry_space_group_name_H-M  'P 1'
_symmetry_Int_Tables_number     1

_symmetry_equiv_pos_as_xyz 'x,y,z'

loop_
_atom_site_label
_atom_site_type_symbol
_atom_site_fract_x
_atom_site_fract_y
_atom_site_fract_z
_atom_site_charge
O        O      0.250000000000     0.156650000000     0.112650000000     0          
O        O      0.284800000000     0.110850000000     0.135250000000     0          
O        O      0.250000000000     0.141450000000     0.187500000000     0          
O        O      0.034750000000     0.046300000000     0.120375000000     0          
O        O      0.103500000000     0.050650000000     0.130475000000     0          
O        O      0.073950000000     0.000000000000     0.125000000000     0          
O        O      0.078250000000     0.033150000000     0.062500000000     0          
O        O      0.442000000000     0.364850000000     0.062500000000     0          
O        O      0.411350000000     0.394350000000     0.119025000000     0          
O        O      0.403500000000     0.338450000000     0.115975000000     0          
O        O      0.377750000000     0.333450000000     0.187500000000     0          
O        O      0.000000000000     0.449700000000     0.062500000000     0          
T        Si     0.430400000000     0.364550000000     0.108200000000     0          
T        Si     0.368250000000     0.332000000000     0.141250000000     0          
T        Si     0.072550000000     0.032500000000     0.109525000000     0          
T        Si     0.250000000000     0.129950000000     0.142675000000     0          
T        Si     0.000000000000     0.441000000000     0.108450000000     0          
O        O      0.250000000000     0.343350000000     0.237650000000     0          
O        O      0.215200000000     0.389150000000     0.010250000000     0          
O        O      0.250000000000     0.358550000000     0.062500000000     0          
O        O      0.465250000000     0.453700000000     0.245375000000     0          
O        O      0.396500000000     0.449350000000     0.005475000000     0          
O        O      0.426050000000     0.000000000000     0.000000000000     0          
O        O      0.421750000000     0.466850000000     0.187500000000     0          
O        O      0.058000000000     0.135150000000     0.187500000000     0          
O        O      0.088650000000     0.105650000000     0.244025000000     0          
O        O      0.096500000000     0.161550000000     0.240975000000     0          
O        O      0.122250000000     0.166550000000     0.062500000000     0          
O        O      0.000000000000     0.050300000000     0.187500000000     0          
T        Si     0.069600000000     0.135450000000     0.233200000000     0          
T        Si     0.131750000000     0.168000000000     0.016250000000     0          
T        Si     0.427450000000     0.467500000000     0.234525000000     0          
T        Si     0.250000000000     0.370050000000     0.017675000000     0          
T        Si     0.000000000000     0.059000000000     0.233450000000     0          
O        O      0.250000000000     0.343350000000     0.137350000000     0          
O        O      0.284800000000     0.389150000000     0.114750000000     0          
O        O      0.034750000000     0.453700000000     0.129625000000     0          
O        O      0.103500000000     0.449350000000     0.119525000000     0          
O        O      0.078250000000     0.466850000000     0.187500000000     0          
O        O      0.442000000000     0.135150000000     0.187500000000     0          
O        O      0.411350000000     0.105650000000     0.130975000000     0          
O        O      0.403500000000     0.161550000000     0.134025000000     0          
O        O      0.377750000000     0.166550000000     0.062500000000     0          
T        Si     0.430400000000     0.135450000000     0.141800000000     0          
T        Si     0.368250000000     0.168000000000     0.108750000000     0          
T        Si     0.072550000000     0.467500000000     0.140475000000     0          
T        Si     0.250000000000     0.370050000000     0.107325000000     0          
T        Si     0.000000000000     0.059000000000     0.141550000000     0          
O        O      0.250000000000     0.156650000000     0.012350000000     0          
O        O      0.215200000000     0.110850000000     0.239750000000     0          
O        O      0.465250000000     0.046300000000     0.004625000000     0          
O        O      0.396500000000     0.050650000000     0.244525000000     0          
O        O      0.421750000000     0.033150000000     0.062500000000     0          
O        O      0.058000000000     0.364850000000     0.062500000000     0          
O        O      0.088650000000     0.394350000000     0.005975000000     0          
O        O      0.096500000000     0.338450000000     0.009025000000     0          
O        O      0.122250000000     0.333450000000     0.187500000000     0          
T        Si     0.069600000000     0.364550000000     0.016800000000     0          
T        Si     0.131750000000     0.332000000000     0.233750000000     0          
T        Si     0.427450000000     0.032500000000     0.015475000000     0          
T        Si     0.250000000000     0.129950000000     0.232325000000     0          
T        Si     0.000000000000     0.441000000000     0.016550000000     0          
O        O      0.215200000000     0.389150000000     0.114750000000     0          
O        O      0.465250000000     0.453700000000     0.129625000000     0          
O        O      0.396500000000     0.449350000000     0.119525000000     0          
O        O      0.426050000000     0.000000000000     0.125000000000     0          
O        O      0.088650000000     0.105650000000     0.130975000000     0          
O        O      0.096500000000     0.161550000000     0.134025000000     0          
T        Si     0.069600000000     0.135450000000     0.141800000000     0          
T        Si     0.131750000000     0.168000000000     0.108750000000     0          
T        Si     0.427450000000     0.467500000000     0.140475000000     0          
O        O      0.284800000000     0.110850000000     0.239750000000     0          
O        O      0.034750000000     0.046300000000     0.004625000000     0          
O        O      0.103500000000     0.050650000000     0.244525000000     0          
O        O      0.073950000000     0.000000000000     0.000000000000     0          
O        O      0.411350000000     0.394350000000     0.005975000000     0          
O        O      0.403500000000     0.338450000000     0.009025000000     0          
T        Si     0.430400000000     0.364550000000     0.016800000000     0          
T        Si     0.368250000000     0.332000000000     0.233750000000     0          
T        Si     0.072550000000     0.032500000000     0.015475000000     0          
O        O      0.215200000000     0.110850000000     0.135250000000     0          
O        O      0.465250000000     0.046300000000     0.120375000000     0          
O        O      0.396500000000     0.050650000000     0.130475000000     0          
O        O      0.088650000000     0.394350000000     0.119025000000     0          
O        O      0.096500000000     0.338450000000     0.115975000000     0          
T        Si     0.069600000000     0.364550000000     0.108200000000     0          
T        Si     0.131750000000     0.332000000000     0.141250000000     0          
T        Si     0.427450000000     0.032500000000     0.109525000000     0          
O        O      0.284800000000     0.389150000000     0.010250000000     0          
O        O      0.034750000000     0.453700000000     0.245375000000     0          
O        O      0.103500000000     0.449350000000     0.005475000000     0          
O        O      0.411350000000     0.105650000000     0.244025000000     0          
O        O      0.403500000000     0.161550000000     0.240975000000     0          
T        Si     0.430400000000     0.135450000000     0.233200000000     0          
T        Si     0.368250000000     0.168000000000     0.016250000000     0          
T        Si     0.072550000000     0.467500000000     0.234525000000     0          
O        O      0.000000000000     0.406650000000     0.112650000000     0          
O        O      0.034800000000     0.360850000000     0.135250000000     0          
O        O      0.000000000000     0.391450000000     0.187500000000     0          
O        O      0.284750000000     0.296300000000     0.120375000000     0          
O        O      0.353500000000     0.300650000000     0.130475000000     0          
O        O      0.323950000000     0.250000000000     0.125000000000     0          
O        O      0.328250000000     0.283150000000     0.062500000000     0          
O        O      0.192000000000     0.114850000000     0.062500000000     0          
O        O      0.161350000000     0.144350000000     0.119025000000     0          
O        O      0.153500000000     0.088450000000     0.115975000000     0          
O        O      0.127750000000     0.083450000000     0.187500000000     0          
O        O      0.250000000000     0.199700000000     0.062500000000     0          
T        Si     0.180400000000     0.114550000000     0.108200000000     0          
T        Si     0.118250000000     0.082000000000     0.141250000000     0          
T        Si     0.322550000000     0.282500000000     0.109525000000     0          
T        Si     0.000000000000     0.379950000000     0.142675000000     0          
T        Si     0.250000000000     0.191000000000     0.108450000000     0          
O        O      0.000000000000     0.093350000000     0.237650000000     0          
O        O      0.465200000000     0.139150000000     0.010250000000     0          
O        O      0.000000000000     0.108550000000     0.062500000000     0          
O        O      0.215250000000     0.203700000000     0.245375000000     0          
O        O      0.146500000000     0.199350000000     0.005475000000     0          
O        O      0.176050000000     0.250000000000     0.000000000000     0          
O        O      0.171750000000     0.216850000000     0.187500000000     0          
O        O      0.308000000000     0.385150000000     0.187500000000     0          
O        O      0.338650000000     0.355650000000     0.244025000000     0          
O        O      0.346500000000     0.411550000000     0.240975000000     0          
O        O      0.372250000000     0.416550000000     0.062500000000     0          
O        O      0.250000000000     0.300300000000     0.187500000000     0          
T        Si     0.319600000000     0.385450000000     0.233200000000     0          
T        Si     0.381750000000     0.418000000000     0.016250000000     0          
T        Si     0.177450000000     0.217500000000     0.234525000000     0          
T        Si     0.000000000000     0.120050000000     0.017675000000     0          
T        Si     0.250000000000     0.309000000000     0.233450000000     0          
O        O      0.000000000000     0.093350000000     0.137350000000     0          
O        O      0.034800000000     0.139150000000     0.114750000000     0          
O        O      0.284750000000     0.203700000000     0.129625000000     0          
O        O      0.353500000000     0.199350000000     0.119525000000     0          
O        O      0.328250000000     0.216850000000     0.187500000000     0          
O        O      0.192000000000     0.385150000000     0.187500000000     0          
O        O      0.161350000000     0.355650000000     0.130975000000     0          
O        O      0.153500000000     0.411550000000     0.134025000000     0          
O        O      0.127750000000     0.416550000000     0.062500000000     0          
T        Si     0.180400000000     0.385450000000     0.141800000000     0          
T        Si     0.118250000000     0.418000000000     0.108750000000     0          
T        Si     0.322550000000     0.217500000000     0.140475000000     0          
T        Si     0.000000000000     0.120050000000     0.107325000000     0          
T        Si     0.250000000000     0.309000000000     0.141550000000     0          
O        O      0.000000000000     0.406650000000     0.012350000000     0          
O        O      0.465200000000     0.360850000000     0.239750000000     0          
O        O      0.215250000000     0.296300000000     0.004625000000     0          
O        O      0.146500000000     0.300650000000     0.244525000000     0          
O        O      0.171750000000     0.283150000000     0.062500000000     0          
O        O      0.308000000000     0.114850000000     0.062500000000     0          
O        O      0.338650000000     0.144350000000     0.005975000000     0          
O        O      0.346500000000     0.088450000000     0.009025000000     0          
O        O      0.372250000000     0.083450000000     0.187500000000     0          
T        Si     0.319600000000     0.114550000000     0.016800000000     0          
T        Si     0.381750000000     0.082000000000     0.233750000000     0          
T        Si     0.177450000000     0.282500000000     0.015475000000     0          
T        Si     0.000000000000     0.379950000000     0.232325000000     0          
T        Si     0.250000000000     0.191000000000     0.016550000000     0          
O        O      0.465200000000     0.139150000000     0.114750000000     0          
O        O      0.215250000000     0.203700000000     0.129625000000     0          
O        O      0.146500000000     0.199350000000     0.119525000000     0          
O        O      0.176050000000     0.250000000000     0.125000000000     0          
O        O      0.338650000000     0.355650000000     0.130975000000     0          
O        O      0.346500000000     0.411550000000     0.134025000000     0          
T        Si     0.319600000000     0.385450000000     0.141800000000     0          
T        Si     0.381750000000     0.418000000000     0.108750000000     0          
T        Si     0.177450000000     0.217500000000     0.140475000000     0          
O        O      0.034800000000     0.360850000000     0.239750000000     0          
O        O      0.284750000000     0.296300000000     0.004625000000     0          
O        O      0.353500000000     0.300650000000     0.244525000000     0          
O        O      0.323950000000     0.250000000000     0.000000000000     0          
O        O      0.161350000000     0.144350000000     0.005975000000     0          
O        O      0.153500000000     0.088450000000     0.009025000000     0          
T        Si     0.180400000000     0.114550000000     0.016800000000     0          
T        Si     0.118250000000     0.082000000000     0.233750000000     0          
T        Si     0.322550000000     0.282500000000     0.015475000000     0          
O        O      0.465200000000     0.360850000000     0.135250000000     0          
O        O      0.215250000000     0.296300000000     0.120375000000     0          
O        O      0.146500000000     0.300650000000     0.130475000000     0          
O        O      0.338650000000     0.144350000000     0.119025000000     0          
O        O      0.346500000000     0.088450000000     0.115975000000     0          
T        Si     0.319600000000     0.114550000000     0.108200000000     0          
T        Si     0.381750000000     0.082000000000     0.141250000000     0          
T        Si     0.177450000000     0.282500000000     0.109525000000     0          
O        O      0.034800000000     0.139150000000     0.010250000000     0          
O        O      0.284750000000     0.203700000000     0.245375000000     0          
O        O      0.353500000000     0.199350000000     0.005475000000     0          
O        O      0.161350000000     0.355650000000     0.244025000000     0          
O        O      0.153500000000     0.411550000000     0.240975000000     0          
T        Si     0.180400000000     0.385450000000     0.233200000000     0          
T        Si     0.118250000000     0.418000000000     0.016250000000     0          
T        Si     0.322550000000     0.217500000000     0.234525000000     0          
O        O      0.250000000000     0.156650000000     0.362650000000     0          
O        O      0.284800000000     0.110850000000     0.385250000000     0          
O        O      0.250000000000     0.141450000000     0.437500000000     0          
O        O      0.034750000000     0.046300000000     0.370375000000     0          
O        O      0.103500000000     0.050650000000     0.380475000000     0          
O        O      0.073950000000     0.000000000000     0.375000000000     0          
O        O      0.078250000000     0.033150000000     0.312500000000     0          
O        O      0.442000000000     0.364850000000     0.312500000000     0          
O        O      0.411350000000     0.394350000000     0.369025000000     0          
O        O      0.403500000000     0.338450000000     0.365975000000     0          
O        O      0.377750000000     0.333450000000     0.437500000000     0          
O        O      0.000000000000     0.449700000000     0.312500000000     0          
T        Si     0.430400000000     0.364550000000     0.358200000000     0          
T        Si     0.368250000000     0.332000000000     0.391250000000     0          
T        Si     0.072550000000     0.032500000000     0.359525000000     0          
T        Si     0.250000000000     0.129950000000     0.392675000000     0          
T        Si     0.000000000000     0.441000000000     0.358450000000     0          
O        O      0.250000000000     0.343350000000     0.487650000000     0          
O        O      0.215200000000     0.389150000000     0.260250000000     0          
O        O      0.250000000000     0.358550000000     0.312500000000     0          
O        O      0.465250000000     0.453700000000     0.495375000000     0          
O        O      0.396500000000     0.449350000000     0.255475000000     0          
O        O      0.426050000000     0.000000000000     0.250000000000     0          
O        O      0.421750000000     0.466850000000     0.437500000000     0          
O        O      0.058000000000     0.135150000000     0.437500000000     0          
O        O      0.088650000000     0.105650000000     0.494025000000     0          
O        O      0.096500000000     0.161550000000     0.490975000000     0          
O        O      0.122250000000     0.166550000000     0.312500000000     0          
O        O      0.000000000000     0.050300000000     0.437500000000     0          
T        Si     0.069600000000     0.135450000000     0.483200000000     0          
T        Si     0.131750000000     0.168000000000     0.266250000000     0          
T        Si     0.427450000000     0.467500000000     0.484525000000     0          
T        Si     0.250000000000     0.370050000000     0.267675000000     0          
T        Si     0.000000000000     0.059000000000     0.483450000000     0          
O        O      0.250000000000     0.343350000000     0.387350000000     0          
O        O      0.284800000000     0.389150000000     0.364750000000     0          
O        O      0.034750000000     0.453700000000     0.379625000000     0          
O        O      0.103500000000     0.449350000000     0.369525000000     0          
O        O      0.078250000000     0.466850000000     0.437500000000     0          
O        O      0.442000000000     0.135150000000     0.437500000000     0          
O        O      0.411350000000     0.105650000000     0.380975000000     0          
O        O      0.403500000000     0.161550000000     0.384025000000     0          
O        O      0.377750000000     0.166550000000     0.312500000000     0          
T        Si     0.430400000000     0.135450000000     0.391800000000     0          
T        Si     0.368250000000     0.168000000000     0.358750000000     0          
T        Si     0.072550000000     0.467500000000     0.390475000000     0          
T        Si     0.250000000000     0.370050000000     0.357325000000     0          
T        Si     0.000000000000     0.059000000000     0.391550000000     0          
O        O      0.250000000000     0.156650000000     0.262350000000     0          
O        O      0.215200000000     0.110850000000     0.489750000000     0          
O        O      0.465250000000     0.046300000000     0.254625000000     0          
O        O      0.396500000000     0.050650000000     0.494525000000     0          
O        O      0.421750000000     0.033150000000     0.312500000000     0          
O        O      0.058000000000     0.364850000000     0.312500000000     0          
O        O      0.088650000000     0.394350000000     0.255975000000     0          
O        O      0.096500000000     0.338450000000     0.259025000000     0          
O        O      0.122250000000     0.333450000000     0.437500000000     0          
T        Si     0.069600000000     0.364550000000     0.266800000000     0          
T        Si     0.131750000000     0.332000000000     0.483750000000     0          
T        Si     0.427450000000     0.032500000000     0.265475000000     0          
T        Si     0.250000000000     0.129950000000     0.482325000000     0          
T        Si     0.000000000000     0.441000000000     0.266550000000     0          
O        O      0.215200000000     0.389150000000     0.364750000000     0          
O        O      0.465250000000     0.453700000000     0.379625000000     0          
O        O      0.396500000000     0.449350000000     0.369525000000     0          
O        O      0.426050000000     0.000000000000     0.375000000000     0          
O        O      0.088650000000     0.105650000000     0.380975000000     0          
O        O      0.096500000000     0.161550000000     0.384025000000     0          
T        Si     0.069600000000     0.135450000000     0.391800000000     0          
T        Si     0.131750000000     0.168000000000     0.358750000000     0          
T        Si     0.427450000000     0.467500000000     0.390475000000     0          
O        O      0.284800000000     0.110850000000     0.489750000000     0          
O        O      0.034750000000     0.046300000000     0.254625000000     0          
O        O      0.103500000000     0.050650000000     0.494525000000     0          
O        O      0.073950000000     0.000000000000     0.250000000000     0          
O        O      0.411350000000     0.394350000000     0.255975000000     0          
O        O      0.403500000000     0.338450000000     0.259025000000     0          
T        Si     0.430400000000     0.364550000000     0.266800000000     0          
T        Si     0.368250000000     0.332000000000     0.483750000000     0          
T        Si     0.072550000000     0.032500000000     0.265475000000     0          
O        O      0.215200000000     0.110850000000     0.385250000000     0          
O        O      0.465250000000     0.046300000000     0.370375000000     0          
O        O      0.396500000000     0.050650000000     0.380475000000     0          
O        O      0.088650000000     0.394350000000     0.369025000000     0          
O        O      0.096500000000     0.338450000000     0.365975000000     0          
T        Si     0.069600000000     0.364550000000     0.358200000000     0          
T        Si     0.131750000000     0.332000000000     0.391250000000     0          
T        Si     0.427450000000     0.032500000000     0.359525000000     0          
O        O      0.284800000000     0.389150000000     0.260250000000     0          
O        O      0.034750000000     0.453700000000     0.495375000000     0          
O        O      0.103500000000     0.449350000000     0.255475000000     0          
O        O      0.411350000000     0.105650000000     0.494025000000     0          
O        O      0.403500000000     0.161550000000     0.490975000000     0          
T        Si     0.430400000000     0.135450000000     0.483200000000     0          
T        Si     0.368250000000     0.168000000000     0.266250000000     0          
T        Si     0.072550000000     0.467500000000     0.484525000000     0          
O        O      0.000000000000     0.406650000000     0.362650000000     0          
O        O      0.034800000000     0.360850000000     0.385250000000     0          
O        O      0.000000000000     0.391450000000     0.437500000000     0          
O        O      0.284750000000     0.296300000000     0.370375000000     0          
O        O      0.353500000000     0.300650000000     0.380475000000     0          
O        O      0.323950000000     0.250000000000     0.375000000000     0          
O        O      0.328250000000     0.283150000000     0.312500000000     0          
O        O      0.192000000000     0.114850000000     0.312500000000     0          
O        O      0.161350000000     0.144350000000     0.369025000000     0          
O        O      0.153500000000     0.088450000000     0.365975000000     0          
O        O      0.127750000000     0.083450000000     0.437500000000     0          
O        O      0.250000000000     0.199700000000     0.312500000000     0          
T        Si     0.180400000000     0.114550000000     0.358200000000     0          
T        Si     0.118250000000     0.082000000000     0.391250000000     0          
T        Si     0.322550000000     0.282500000000     0.359525000000     0          
T        Si     0.000000000000     0.379950000000     0.392675000000     0          
T        Si     0.250000000000     0.191000000000     0.358450000000     0          
O        O      0.000000000000     0.093350000000     0.487650000000     0          
O        O      0.465200000000     0.139150000000     0.260250000000     0          
O        O      0.000000000000     0.108550000000     0.312500000000     0          
O        O      0.215250000000     0.203700000000     0.495375000000     0          
O        O      0.146500000000     0.199350000000     0.255475000000     0          
O        O      0.176050000000     0.250000000000     0.250000000000     0          
O        O      0.171750000000     0.216850000000     0.437500000000     0          
O        O      0.308000000000     0.385150000000     0.437500000000     0          
O        O      0.338650000000     0.355650000000     0.494025000000     0          
O        O      0.346500000000     0.411550000000     0.490975000000     0          
O        O      0.372250000000     0.416550000000     0.312500000000     0          
O        O      0.250000000000     0.300300000000     0.437500000000     0          
T        Si     0.319600000000     0.385450000000     0.483200000000     0          
T        Si     0.381750000000     0.418000000000     0.266250000000     0          
T        Si     0.177450000000     0.217500000000     0.484525000000     0          
T        Si     0.000000000000     0.120050000000     0.267675000000     0          
T        Si     0.250000000000     0.309000000000     0.483450000000     0          
O        O      0.000000000000     0.093350000000     0.387350000000     0          
O        O      0.034800000000     0.139150000000     0.364750000000     0          
O        O      0.284750000000     0.203700000000     0.379625000000     0          
O        O      0.353500000000     0.199350000000     0.369525000000     0          
O        O      0.328250000000     0.216850000000     0.437500000000     0          
O        O      0.192000000000     0.385150000000     0.437500000000     0          
O        O      0.161350000000     0.355650000000     0.380975000000     0          
O        O      0.153500000000     0.411550000000     0.384025000000     0          
O        O      0.127750000000     0.416550000000     0.312500000000     0          
T        Si     0.180400000000     0.385450000000     0.391800000000     0          
T        Si     0.118250000000     0.418000000000     0.358750000000     0          
T        Si     0.322550000000     0.217500000000     0.390475000000     0          
T        Si     0.000000000000     0.120050000000     0.357325000000     0          
T        Si     0.250000000000     0.309000000000     0.391550000000     0          
O        O      0.000000000000     0.406650000000     0.262350000000     0          
O        O      0.465200000000     0.360850000000     0.489750000000     0          
O        O      0.215250000000     0.296300000000     0.254625000000     0          
O        O      0.146500000000     0.300650000000     0.494525000000     0          
O        O      0.171750000000     0.283150000000     0.312500000000     0          
O        O      0.308000000000     0.114850000000     0.312500000000     0          
O        O      0.338650000000     0.144350000000     0.255975000000     0          
O        O      0.346500000000     0.088450000000     0.259025000000     0          
O        O      0.372250000000     0.083450000000     0.437500000000     0          
T        Si     0.319600000000     0.114550000000     0.266800000000     0          
T        Si     0.381750000000     0.082000000000     0.483750000000     0          
T        Si     0.177450000000     0.282500000000     0.265475000000     0          
T        Si     0.000000000000     0.379950000000     0.482325000000     0          
T        Si     0.250000000000     0.191000000000     0.266550000000     0          
O        O      0.465200000000     0.139150000000     0.364750000000     0          
O        O      0.215250000000     0.203700000000     0.379625000000     0          
O        O      0.146500000000     0.199350000000     0.369525000000     0          
O        O      0.176050000000     0.250000000000     0.375000000000     0          
O        O      0.338650000000     0.355650000000     0.380975000000     0          
O        O      0.346500000000     0.411550000000     0.384025000000     0          
T        Si     0.319600000000     0.385450000000     0.391800000000     0          
T        Si     0.381750000000     0.418000000000     0.358750000000     0          
T        Si     0.177450000000     0.217500000000     0.390475000000     0          
O        O      0.034800000000     0.360850000000     0.489750000000     0          
O        O      0.284750000000     0.296300000000     0.254625000000     0          
O        O      0.353500000000     0.300650000000     0.494525000000     0          
O        O      0.323950000000     0.250000000000     0.250000000000     0          
O        O      0.161350000000     0.144350000000     0.255975000000     0          
O        O      0.153500000000     0.088450000000     0.259025000000     0          
T        Si     0.180400000000     0.114550000000     0.266800000000     0          
T        Si     0.118250000000     0.082000000000     0.483750000000     0          
T        Si     0.322550000000     0.282500000000     0.265475000000     0          
O        O      0.465200000000     0.360850000000     0.385250000000     0          
O        O      0.215250000000     0.296300000000     0.370375000000     0          
O        O      0.146500000000     0.300650000000     0.380475000000     0          
O        O      0.338650000000     0.144350000000     0.369025000000     0          
O        O      0.346500000000     0.088450000000     0.365975000000     0          
T        Si     0.319600000000     0.114550000000     0.358200000000     0          
T        Si     0.381750000000     0.082000000000     0.391250000000     0          
T        Si     0.177450000000     0.282500000000     0.359525000000     0          
O        O      0.034800000000     0.139150000000     0.260250000000     0          
O        O      0.284750000000     0.203700000000     0.495375000000     0          
O        O      0.353500000000     0.199350000000     0.255475000000     0          
O        O      0.161350000000     0.355650000000     0.494025000000     0          
O        O      0.153500000000     0.411550000000     0.490975000000     0          
T        Si     0.180400000000     0.385450000000     0.483200000000     0          
T        Si     0.118250000000     0.418000000000     0.266250000000     0          
T        Si     0.322550000000     0.217500000000     0.484525000000     0          
O        O      0.250000000000     0.156650000000     0.612650000000     0          
O        O      0.284800000000     0.110850000000     0.635250000000     0          
O        O      0.250000000000     0.141450000000     0.687500000000     0          
O        O      0.034750000000     0.046300000000     0.620375000000     0          
O        O      0.103500000000     0.050650000000     0.630475000000     0          
O        O      0.073950000000     0.000000000000     0.625000000000     0          
O        O      0.078250000000     0.033150000000     0.562500000000     0          
O        O      0.442000000000     0.364850000000     0.562500000000     0          
O        O      0.411350000000     0.394350000000     0.619025000000     0          
O        O      0.403500000000     0.338450000000     0.615975000000     0          
O        O      0.377750000000     0.333450000000     0.687500000000     0          
O        O      0.000000000000     0.449700000000     0.562500000000     0          
T        Si     0.430400000000     0.364550000000     0.608200000000     0          
T        Si     0.368250000000     0.332000000000     0.641250000000     0          
T        Si     0.072550000000     0.032500000000     0.609525000000     0          
T        Si     0.250000000000     0.129950000000     0.642675000000     0          
T        Si     0.000000000000     0.441000000000     0.608450000000     0          
O        O      0.250000000000     0.343350000000     0.737650000000     0          
O        O      0.215200000000     0.389150000000     0.510250000000     0          
O        O      0.250000000000     0.358550000000     0.562500000000     0          
O        O      0.465250000000     0.453700000000     0.745375000000     0          
O        O      0.396500000000     0.449350000000     0.505475000000     0          
O        O      0.426050000000     0.000000000000     0.500000000000     0          
O        O      0.421750000000     0.466850000000     0.687500000000     0          
O        O      0.058000000000     0.135150000000     0.687500000000     0          
O        O      0.088650000000     0.105650000000     0.744025000000     0          
O        O      0.096500000000     0.161550000000     0.740975000000     0          
O        O      0.122250000000     0.166550000000     0.562500000000     0          
O        O      0.000000000000     0.050300000000     0.687500000000     0          
T        Si     0.069600000000     0.135450000000     0.733200000000     0          
T        Si     0.131750000000     0.168000000000     0.516250000000     0          
T        Si     0.427450000000     0.467500000000     0.734525000000     0          
T        Si     0.250000000000     0.370050000000     0.517675000000     0          
T        Si     0.000000000000     0.059000000000     0.733450000000     0          
O        O      0.250000000000     0.343350000000     0.637350000000     0          
O        O      0.284800000000     0.389150000000     0.614750000000     0          
O        O      0.034750000000     0.453700000000     0.629625000000     0          
O        O      0.103500000000     0.449350000000     0.619525000000     0          
O        O      0.078250000000     0.466850000000     0.687500000000     0          
O        O      0.442000000000     0.135150000000     0.687500000000     0          
O        O      0.411350000000     0.105650000000     0.630975000000     0          
O        O      0.403500000000     0.161550000000     0.634025000000     0          
O        O      0.377750000000     0.166550000000     0.562500000000     0          
T        Si     0.430400000000     0.135450000000     0.641800000000     0          
T        Si     0.368250000000     0.168000000000     0.608750000000     0          
T        Si     0.072550000000     0.467500000000     0.640475000000     0          
T        Si     0.250000000000     0.370050000000     0.607325000000     0          
T        Si     0.000000000000     0.059000000000     0.641550000000     0          
O        O      0.250000000000     0.156650000000     0.512350000000     0          
O        O      0.215200000000     0.110850000000     0.739750000000     0          
O        O      0.465250000000     0.046300000000     0.504625000000     0          
O        O      0.396500000000     0.050650000000     0.744525000000     0          
O        O      0.421750000000     0.033150000000     0.562500000000     0          
O        O      0.058000000000     0.364850000000     0.562500000000     0          
O        O      0.088650000000     0.394350000000     0.505975000000     0          
O        O      0.096500000000     0.338450000000     0.509025000000     0          
O        O      0.122250000000     0.333450000000     0.687500000000     0          
T        Si     0.069600000000     0.364550000000     0.516800000000     0          
T        Si     0.131750000000     0.332000000000     0.733750000000     0          
T        Si     0.427450000000     0.032500000000     0.515475000000     0          
T        Si     0.250000000000     0.129950000000     0.732325000000     0          
T        Si     0.000000000000     0.441000000000     0.516550000000     0          
O        O      0.215200000000     0.389150000000     0.614750000000     0          
O        O      0.465250000000     0.453700000000     0.629625000000     0          
O        O      0.396500000000     0.449350000000     0.619525000000     0          
O        O      0.426050000000     0.000000000000     0.625000000000     0          
O        O      0.088650000000     0.105650000000     0.630975000000     0          
O        O      0.096500000000     0.161550000000     0.634025000000     0          
T        Si     0.069600000000     0.135450000000     0.641800000000     0          
T        Si     0.131750000000     0.168000000000     0.608750000000     0          
T        Si     0.427450000000     0.467500000000     0.640475000000     0          
O        O      0.284800000000     0.110850000000     0.739750000000     0          
O        O      0.034750000000     0.046300000000     0.504625000000     0          
O        O      0.103500000000     0.050650000000     0.744525000000     0          
O        O      0.073950000000     0.000000000000     0.500000000000     0          
O        O      0.411350000000     0.394350000000     0.505975000000     0          
O        O      0.403500000000     0.338450000000     0.509025000000     0          
T        Si     0.430400000000     0.364550000000     0.516800000000     0          
T        Si     0.368250000000     0.332000000000     0.733750000000     0          
T        Si     0.072550000000     0.032500000000     0.515475000000     0          
O        O      0.215200000000     0.110850000000     0.635250000000     0          
O        O      0.465250000000     0.046300000000     0.620375000000     0          
O        O      0.396500000000     0.050650000000     0.630475000000     0          
O        O      0.088650000000     0.394350000000     0.619025000000     0          
O        O      0.096500000000     0.338450000000     0.615975000000     0          
T        Si     0.069600000000     0.364550000000     0.608200000000     0          
T        Si     0.131750000000     0.332000000000     0.641250000000     0          
T        Si     0.427450000000     0.032500000000     0.609525000000     0          
O        O      0.284800000000     0.389150000000     0.510250000000     0          
O        O      0.034750000000     0.453700000000     0.745375000000     0          
O        O      0.103500000000     0.449350000000     0.505475000000     0          
O        O      0.411350000000     0.105650000000     0.744025000000     0          
O        O      0.403500000000     0.161550000000     0.740975000000     0          
T        Si     0.430400000000     0.135450000000     0.733200000000     0          
T        Si     0.368250000000     0.168000000000     0.516250000000     0          
T        Si     0.072550000000     0.467500000000     0.734525000000     0          
O        O      0.000000000000     0.406650000000     0.612650000000     0          
O        O      0.034800000000     0.360850000000     0.635250000000     0          
O        O      0.000000000000     0.391450000000     0.687500000000     0          
O        O      0.284750000000     0.296300000000     0.620375000000     0          
O        O      0.353500000000     0.300650000000     0.630475000000     0          
O        O      0.323950000000     0.250000000000     0.625000000000     0          
O        O      0.328250000000     0.283150000000     0.562500000000     0          
O        O      0.192000000000     0.114850000000     0.562500000000     0          
O        O      0.161350000000     0.144350000000     0.619025000000     0          
O        O      0.153500000000     0.088450000000     0.615975000000     0          
O        O      0.127750000000     0.083450000000     0.687500000000     0          
O        O      0.250000000000     0.199700000000     0.562500000000     0          
T        Si     0.180400000000     0.114550000000     0.608200000000     0          
T        Si     0.118250000000     0.082000000000     0.641250000000     0          
T        Si     0.322550000000     0.282500000000     0.609525000000     0          
T        Si     0.000000000000     0.379950000000     0.642675000000     0          
T        Si     0.250000000000     0.191000000000     0.608450000000     0          
O        O      0.000000000000     0.093350000000     0.737650000000     0          
O        O      0.465200000000     0.139150000000     0.510250000000     0          
O        O      0.000000000000     0.108550000000     0.562500000000     0          
O        O      0.215250000000     0.203700000000     0.745375000000     0          
O        O      0.146500000000     0.199350000000     0.505475000000     0          
O        O      0.176050000000     0.250000000000     0.500000000000     0          
O        O      0.171750000000     0.216850000000     0.687500000000     0          
O        O      0.308000000000     0.385150000000     0.687500000000     0          
O        O      0.338650000000     0.355650000000     0.744025000000     0          
O        O      0.346500000000     0.411550000000     0.740975000000     0          
O        O      0.372250000000     0.416550000000     0.562500000000     0          
O        O      0.250000000000     0.300300000000     0.687500000000     0          
T        Si     0.319600000000     0.385450000000     0.733200000000     0          
T        Si     0.381750000000     0.418000000000     0.516250000000     0          
T        Si     0.177450000000     0.217500000000     0.734525000000     0          
T        Si     0.000000000000     0.120050000000     0.517675000000     0          
T        Si     0.250000000000     0.309000000000     0.733450000000     0          
O        O      0.000000000000     0.093350000000     0.637350000000     0          
O        O      0.034800000000     0.139150000000     0.614750000000     0          
O        O      0.284750000000     0.203700000000     0.629625000000     0          
O        O      0.353500000000     0.199350000000     0.619525000000     0          
O        O      0.328250000000     0.216850000000     0.687500000000     0          
O        O      0.192000000000     0.385150000000     0.687500000000     0          
O        O      0.161350000000     0.355650000000     0.630975000000     0          
O        O      0.153500000000     0.411550000000     0.634025000000     0          
O        O      0.127750000000     0.416550000000     0.562500000000     0          
T        Si     0.180400000000     0.385450000000     0.641800000000     0          
T        Si     0.118250000000     0.418000000000     0.608750000000     0          
T        Si     0.322550000000     0.217500000000     0.640475000000     0          
T        Si     0.000000000000     0.120050000000     0.607325000000     0          
T        Si     0.250000000000     0.309000000000     0.641550000000     0          
O        O      0.000000000000     0.406650000000     0.512350000000     0          
O        O      0.465200000000     0.360850000000     0.739750000000     0          
O        O      0.215250000000     0.296300000000     0.504625000000     0          
O        O      0.146500000000     0.300650000000     0.744525000000     0          
O        O      0.171750000000     0.283150000000     0.562500000000     0          
O        O      0.308000000000     0.114850000000     0.562500000000     0          
O        O      0.338650000000     0.144350000000     0.505975000000     0          
O        O      0.346500000000     0.088450000000     0.509025000000     0          
O        O      0.372250000000     0.083450000000     0.687500000000     0          
T        Si     0.319600000000     0.114550000000     0.516800000000     0          
T        Si     0.381750000000     0.082000000000     0.733750000000     0          
T        Si     0.177450000000     0.282500000000     0.515475000000     0          
T        Si     0.000000000000     0.379950000000     0.732325000000     0          
T        Si     0.250000000000     0.191000000000     0.516550000000     0          
O        O      0.465200000000     0.139150000000     0.614750000000     0          
O        O      0.215250000000     0.203700000000     0.629625000000     0          
O        O      0.146500000000     0.199350000000     0.619525000000     0          
O        O      0.176050000000     0.250000000000     0.625000000000     0          
O        O      0.338650000000     0.355650000000     0.630975000000     0          
O        O      0.346500000000     0.411550000000     0.634025000000     0          
T        Si     0.319600000000     0.385450000000     0.641800000000     0          
T        Si     0.381750000000     0.418000000000     0.608750000000     0          
T        Si     0.177450000000     0.217500000000     0.640475000000     0          
O        O      0.034800000000     0.360850000000     0.739750000000     0          
O        O      0.284750000000     0.296300000000     0.504625000000     0          
O        O      0.353500000000     0.300650000000     0.744525000000     0          
O        O      0.323950000000     0.250000000000     0.500000000000     0          
O        O      0.161350000000     0.144350000000     0.505975000000     0          
O        O      0.153500000000     0.088450000000     0.509025000000     0          
T        Si     0.180400000000     0.114550000000     0.516800000000     0          
T        Si     0.118250000000     0.082000000000     0.733750000000     0          
T        Si     0.322550000000     0.282500000000     0.515475000000     0          
O        O      0.465200000000     0.360850000000     0.635250000000     0          
O        O      0.215250000000     0.296300000000     0.620375000000     0          
O        O      0.146500000000     0.300650000000     0.630475000000     0          
O        O      0.338650000000     0.144350000000     0.619025000000     0          
O        O      0.346500000000     0.088450000000     0.615975000000     0          
T        Si     0.319600000000     0.114550000000     0.608200000000     0          
T        Si     0.381750000000     0.082000000000     0.641250000000     0          
T        Si     0.177450000000     0.282500000000     0.609525000000     0          
O        O      0.034800000000     0.139150000000     0.510250000000     0          
O        O      0.284750000000     0.203700000000     0.745375000000     0          
O        O      0.353500000000     0.199350000000     0.505475000000     0          
O        O      0.161350000000     0.355650000000     0.744025000000     0          
O        O      0.153500000000     0.411550000000     0.740975000000     0          
T        Si     0.180400000000     0.385450000000     0.733200000000     0          
T        Si     0.118250000000     0.418000000000     0.516250000000     0          
T        Si     0.322550000000     0.217500000000     0.734525000000     0          
O        O      0.250000000000     0.156650000000     0.862650000000     0          
O        O      0.284800000000     0.110850000000     0.885250000000     0          
O        O      0.250000000000     0.141450000000     0.937500000000     0          
O        O      0.034750000000     0.046300000000     0.870375000000     0          
O        O      0.103500000000     0.050650000000     0.880475000000     0          
O        O      0.073950000000     0.000000000000     0.875000000000     0          
O        O      0.078250000000     0.033150000000     0.812500000000     0          
O        O      0.442000000000     0.364850000000     0.812500000000     0          
O        O      0.411350000000     0.394350000000     0.869025000000     0          
O        O      0.403500000000     0.338450000000     0.865975000000     0          
O        O      0.377750000000     0.333450000000     0.937500000000     0          
O        O      0.000000000000     0.449700000000     0.812500000000     0          
T        Si     0.430400000000     0.364550000000     0.858200000000     0          
T        Si     0.368250000000     0.332000000000     0.891250000000     0          
T        Si     0.072550000000     0.032500000000     0.859525000000     0          
T        Si     0.250000000000     0.129950000000     0.892675000000     0          
T        Si     0.000000000000     0.441000000000     0.858450000000     0          
O        O      0.250000000000     0.343350000000     0.987650000000     0          
O        O      0.215200000000     0.389150000000     0.760250000000     0          
O        O      0.250000000000     0.358550000000     0.812500000000     0          
O        O      0.465250000000     0.453700000000     0.995375000000     0          
O        O      0.396500000000     0.449350000000     0.755475000000     0          
O        O      0.426050000000     0.000000000000     0.750000000000     0          
O        O      0.421750000000     0.466850000000     0.937500000000     0          
O        O      0.058000000000     0.135150000000     0.937500000000     0          
O        O      0.088650000000     0.105650000000     0.994025000000     0          
O        O      0.096500000000     0.161550000000     0.990975000000     0          
O        O      0.122250000000     0.166550000000     0.812500000000     0          
O        O      0.000000000000     0.050300000000     0.937500000000     0          
T        Si     0.069600000000     0.135450000000     0.983200000000     0          
T        Si     0.131750000000     0.168000000000     0.766250000000     0          
T        Si     0.427450000000     0.467500000000     0.984525000000     0          
T        Si     0.250000000000     0.370050000000     0.767675000000     0          
T        Si     0.000000000000     0.059000000000     0.983450000000     0          
O        O      0.250000000000     0.343350000000     0.887350000000     0          
O        O      0.284800000000     0.389150000000     0.864750000000     0          
O        O      0.034750000000     0.453700000000     0.879625000000     0          
O        O      0.103500000000     0.449350000000     0.869525000000     0          
O        O      0.078250000000     0.466850000000     0.937500000000     0          
O        O      0.442000000000     0.135150000000     0.937500000000     0          
O        O      0.411350000000     0.105650000000     0.880975000000     0          
O        O      0.403500000000     0.161550000000     0.884025000000     0          
O        O      0.377750000000     0.166550000000     0.812500000000     0          
T        Si     0.430400000000     0.135450000000     0.891800000000     0          
T        Si     0.368250000000     0.168000000000     0.858750000000     0          
T        Si     0.072550000000     0.467500000000     0.890475000000     0          
T        Si     0.250000000000     0.370050000000     0.857325000000     0          
T        Si     0.000000000000     0.059000000000     0.891550000000     0          
O        O      0.250000000000     0.156650000000     0.762350000000     0          
O        O      0.215200000000     0.110850000000     0.989750000000     0          
O        O      0.465250000000     0.046300000000     0.754625000000     0          
O        O      0.396500000000     0.050650000000     0.994525000000     0          
O        O      0.421750000000     0.033150000000     0.812500000000     0          
O        O      0.058000000000     0.364850000000     0.812500000000     0          
O        O      0.088650000000     0.394350000000     0.755975000000     0          
O        O      0.096500000000     0.338450000000     0.759025000000     0          
O        O      0.122250000000     0.333450000000     0.937500000000     0          
T        Si     0.069600000000     0.364550000000     0.766800000000     0          
T        Si     0.131750000000     0.332000000000     0.983750000000     0          
T        Si     0.427450000000     0.032500000000     0.765475000000     0          
T        Si     0.250000000000     0.129950000000     0.982325000000     0          
T        Si     0.000000000000     0.441000000000     0.766550000000     0          
O        O      0.215200000000     0.389150000000     0.864750000000     0          
O        O      0.465250000000     0.453700000000     0.879625000000     0          
O        O      0.396500000000     0.449350000000     0.869525000000     0          
O        O      0.426050000000     0.000000000000     0.875000000000     0          
O        O      0.088650000000     0.105650000000     0.880975000000     0          
O        O      0.096500000000     0.161550000000     0.884025000000     0          
T        Si     0.069600000000     0.135450000000     0.891800000000     0          
T        Si     0.131750000000     0.168000000000     0.858750000000     0          
T        Si     0.427450000000     0.467500000000     0.890475000000     0          
O        O      0.284800000000     0.110850000000     0.989750000000     0          
O        O      0.034750000000     0.046300000000     0.754625000000     0          
O        O      0.103500000000     0.050650000000     0.994525000000     0          
O        O      0.073950000000     0.000000000000     0.750000000000     0          
O        O      0.411350000000     0.394350000000     0.755975000000     0          
O        O      0.403500000000     0.338450000000     0.759025000000     0          
T        Si     0.430400000000     0.364550000000     0.766800000000     0          
T        Si     0.368250000000     0.332000000000     0.983750000000     0          
T        Si     0.072550000000     0.032500000000     0.765475000000     0          
O        O      0.215200000000     0.110850000000     0.885250000000     0          
O        O      0.465250000000     0.046300000000     0.870375000000     0          
O        O      0.396500000000     0.050650000000     0.880475000000     0          
O        O      0.088650000000     0.394350000000     0.869025000000     0          
O        O      0.096500000000     0.338450000000     0.865975000000     0          
T        Si     0.069600000000     0.364550000000     0.858200000000     0          
T        Si     0.131750000000     0.332000000000     0.891250000000     0          
T        Si     0.427450000000     0.032500000000     0.859525000000     0          
O        O      0.284800000000     0.389150000000     0.760250000000     0          
O        O      0.034750000000     0.453700000000     0.995375000000     0          
O        O      0.103500000000     0.449350000000     0.755475000000     0          
O        O      0.411350000000     0.105650000000     0.994025000000     0          
O        O      0.403500000000     0.161550000000     0.990975000000     0          
T        Si     0.430400000000     0.135450000000     0.983200000000     0          
T        Si     0.368250000000     0.168000000000     0.766250000000     0          
T        Si     0.072550000000     0.467500000000     0.984525000000     0          
O        O      0.000000000000     0.406650000000     0.862650000000     0          
O        O      0.034800000000     0.360850000000     0.885250000000     0          
O        O      0.000000000000     0.391450000000     0.937500000000     0          
O        O      0.284750000000     0.296300000000     0.870375000000     0          
O        O      0.353500000000     0.300650000000     0.880475000000     0          
O        O      0.323950000000     0.250000000000     0.875000000000     0          
O        O      0.328250000000     0.283150000000     0.812500000000     0          
O        O      0.192000000000     0.114850000000     0.812500000000     0          
O        O      0.161350000000     0.144350000000     0.869025000000     0          
O        O      0.153500000000     0.088450000000     0.865975000000     0          
O        O      0.127750000000     0.083450000000     0.937500000000     0          
O        O      0.250000000000     0.199700000000     0.812500000000     0          
T        Si     0.180400000000     0.114550000000     0.858200000000     0          
T        Si     0.118250000000     0.082000000000     0.891250000000     0          
T        Si     0.322550000000     0.282500000000     0.859525000000     0          
T        Si     0.000000000000     0.379950000000     0.892675000000     0          
T        Si     0.250000000000     0.191000000000     0.858450000000     0          
O        O      0.000000000000     0.093350000000     0.987650000000     0          
O        O      0.465200000000     0.139150000000     0.760250000000     0          
O        O      0.000000000000     0.108550000000     0.812500000000     0          
O        O      0.215250000000     0.203700000000     0.995375000000     0          
O        O      0.146500000000     0.199350000000     0.755475000000     0          
O        O      0.176050000000     0.250000000000     0.750000000000     0          
O        O      0.171750000000     0.216850000000     0.937500000000     0          
O        O      0.308000000000     0.385150000000     0.937500000000     0          
O        O      0.338650000000     0.355650000000     0.994025000000     0          
O        O      0.346500000000     0.411550000000     0.990975000000     0          
O        O      0.372250000000     0.416550000000     0.812500000000     0          
O        O      0.250000000000     0.300300000000     0.937500000000     0          
T        Si     0.319600000000     0.385450000000     0.983200000000     0          
T        Si     0.381750000000     0.418000000000     0.766250000000     0          
T        Si     0.177450000000     0.217500000000     0.984525000000     0          
T        Si     0.000000000000     0.120050000000     0.767675000000     0          
T        Si     0.250000000000     0.309000000000     0.983450000000     0          
O        O      0.000000000000     0.093350000000     0.887350000000     0          
O        O      0.034800000000     0.139150000000     0.864750000000     0          
O        O      0.284750000000     0.203700000000     0.879625000000     0          
O        O      0.353500000000     0.199350000000     0.869525000000     0          
O        O      0.328250000000     0.216850000000     0.937500000000     0          
O        O      0.192000000000     0.385150000000     0.937500000000     0          
O        O      0.161350000000     0.355650000000     0.880975000000     0          
O        O      0.153500000000     0.411550000000     0.884025000000     0          
O        O      0.127750000000     0.416550000000     0.812500000000     0          
T        Si     0.180400000000     0.385450000000     0.891800000000     0          
T        Si     0.118250000000     0.418000000000     0.858750000000     0          
T        Si     0.322550000000     0.217500000000     0.890475000000     0          
T        Si     0.000000000000     0.120050000000     0.857325000000     0          
T        Si     0.250000000000     0.309000000000     0.891550000000     0          
O        O      0.000000000000     0.406650000000     0.762350000000     0          
O        O      0.465200000000     0.360850000000     0.989750000000     0          
O        O      0.215250000000     0.296300000000     0.754625000000     0          
O        O      0.146500000000     0.300650000000     0.994525000000     0          
O        O      0.171750000000     0.283150000000     0.812500000000     0          
O        O      0.308000000000     0.114850000000     0.812500000000     0          
O        O      0.338650000000     0.144350000000     0.755975000000     0          
O        O      0.346500000000     0.088450000000     0.759025000000     0          
O        O      0.372250000000     0.083450000000     0.937500000000     0          
T        Si     0.319600000000     0.114550000000     0.766800000000     0          
T        Si     0.381750000000     0.082000000000     0.983750000000     0          
T        Si     0.177450000000     0.282500000000     0.765475000000     0          
T        Si     0.000000000000     0.379950000000     0.982325000000     0          
T        Si     0.250000000000     0.191000000000     0.766550000000     0          
O        O      0.465200000000     0.139150000000     0.864750000000     0          
O        O      0.215250000000     0.203700000000     0.879625000000     0          
O        O      0.146500000000     0.199350000000     0.869525000000     0          
O        O      0.176050000000     0.250000000000     0.875000000000     0          
O        O      0.338650000000     0.355650000000     0.880975000000     0          
O        O      0.346500000000     0.411550000000     0.884025000000     0          
T        Si     0.319600000000     0.385450000000     0.891800000000     0          
T        Si     0.381750000000     0.418000000000     0.858750000000     0          
T        Si     0.177450000000     0.217500000000     0.890475000000     0          
O        O      0.034800000000     0.360850000000     0.989750000000     0          
O        O      0.284750000000     0.296300000000     0.754625000000     0          
O        O      0.353500000000     0.300650000000     0.994525000000     0          
O        O      0.323950000000     0.250000000000     0.750000000000     0          
O        O      0.161350000000     0.144350000000     0.755975000000     0          
O        O      0.153500000000     0.088450000000     0.759025000000     0          
T        Si     0.180400000000     0.114550000000     0.766800000000     0          
T        Si     0.118250000000     0.082000000000     0.983750000000     0          
T        Si     0.322550000000     0.282500000000     0.765475000000     0          
O        O      0.465200000000     0.360850000000     0.885250000000     0          
O        O      0.215250000000     0.296300000000     0.870375000000     0          
O        O      0.146500000000     0.300650000000     0.880475000000     0          
O        O      0.338650000000     0.144350000000     0.869025000000     0          
O        O      0.346500000000     0.088450000000     0.865975000000     0          
T        Si     0.319600000000     0.114550000000     0.858200000000     0          
T        Si     0.381750000000     0.082000000000     0.891250000000     0          
T        Si     0.177450000000     0.282500000000     0.859525000000     0          
O        O      0.034800000000     0.139150000000     0.760250000000     0          
O        O      0.284750000000     0.203700000000     0.995375000000     0          
O        O      0.353500000000     0.199350000000     0.755475000000     0          
O        O      0.161350000000     0.355650000000     0.994025000000     0          
O        O      0.153500000000     0.411550000000     0.990975000000     0          
T        Si     0.180400000000     0.385450000000     0.983200000000     0          
T        Si     0.118250000000     0.418000000000     0.766250000000     0          
T        Si     0.322550000000     0.217500000000     0.984525000000     0          
O        O      0.250000000000     0.656650000000     0.112650000000     0          
O        O      0.284800000000     0.610850000000     0.135250000000     0          
O        O      0.250000000000     0.641450000000     0.187500000000     0          
O        O      0.034750000000     0.546300000000     0.120375000000     0          
O        O      0.103500000000     0.550650000000     0.130475000000     0          
O        O      0.073950000000     0.500000000000     0.125000000000     0          
O        O      0.078250000000     0.533150000000     0.062500000000     0          
O        O      0.442000000000     0.864850000000     0.062500000000     0          
O        O      0.411350000000     0.894350000000     0.119025000000     0          
O        O      0.403500000000     0.838450000000     0.115975000000     0          
O        O      0.377750000000     0.833450000000     0.187500000000     0          
O        O      0.000000000000     0.949700000000     0.062500000000     0          
T        Si     0.430400000000     0.864550000000     0.108200000000     0          
T        Si     0.368250000000     0.832000000000     0.141250000000     0          
T        Si     0.072550000000     0.532500000000     0.109525000000     0          
T        Si     0.250000000000     0.629950000000     0.142675000000     0          
T        Si     0.000000000000     0.941000000000     0.108450000000     0          
O        O      0.250000000000     0.843350000000     0.237650000000     0          
O        O      0.215200000000     0.889150000000     0.010250000000     0          
O        O      0.250000000000     0.858550000000     0.062500000000     0          
O        O      0.465250000000     0.953700000000     0.245375000000     0          
O        O      0.396500000000     0.949350000000     0.005475000000     0          
O        O      0.426050000000     0.500000000000     0.000000000000     0          
O        O      0.421750000000     0.966850000000     0.187500000000     0          
O        O      0.058000000000     0.635150000000     0.187500000000     0          
O        O      0.088650000000     0.605650000000     0.244025000000     0          
O        O      0.096500000000     0.661550000000     0.240975000000     0          
O        O      0.122250000000     0.666550000000     0.062500000000     0          
O        O      0.000000000000     0.550300000000     0.187500000000     0          
T        Si     0.069600000000     0.635450000000     0.233200000000     0          
T        Si     0.131750000000     0.668000000000     0.016250000000     0          
T        Si     0.427450000000     0.967500000000     0.234525000000     0          
T        Si     0.250000000000     0.870050000000     0.017675000000     0          
T        Si     0.000000000000     0.559000000000     0.233450000000     0          
O        O      0.250000000000     0.843350000000     0.137350000000     0          
O        O      0.284800000000     0.889150000000     0.114750000000     0          
O        O      0.034750000000     0.953700000000     0.129625000000     0          
O        O      0.103500000000     0.949350000000     0.119525000000     0          
O        O      0.078250000000     0.966850000000     0.187500000000     0          
O        O      0.442000000000     0.635150000000     0.187500000000     0          
O        O      0.411350000000     0.605650000000     0.130975000000     0          
O        O      0.403500000000     0.661550000000     0.134025000000     0          
O        O      0.377750000000     0.666550000000     0.062500000000     0          
T        Si     0.430400000000     0.635450000000     0.141800000000     0          
T        Si     0.368250000000     0.668000000000     0.108750000000     0          
T        Si     0.072550000000     0.967500000000     0.140475000000     0          
T        Si     0.250000000000     0.870050000000     0.107325000000     0          
T        Si     0.000000000000     0.559000000000     0.141550000000     0          
O        O      0.250000000000     0.656650000000     0.012350000000     0          
O        O      0.215200000000     0.610850000000     0.239750000000     0          
O        O      0.465250000000     0.546300000000     0.004625000000     0          
O        O      0.396500000000     0.550650000000     0.244525000000     0          
O        O      0.421750000000     0.533150000000     0.062500000000     0          
O        O      0.058000000000     0.864850000000     0.062500000000     0          
O        O      0.088650000000     0.894350000000     0.005975000000     0          
O        O      0.096500000000     0.838450000000     0.009025000000     0          
O        O      0.122250000000     0.833450000000     0.187500000000     0          
T        Si     0.069600000000     0.864550000000     0.016800000000     0          
T        Si     0.131750000000     0.832000000000     0.233750000000     0          
T        Si     0.427450000000     0.532500000000     0.015475000000     0          
T        Si     0.250000000000     0.629950000000     0.232325000000     0          
T        Si     0.000000000000     0.941000000000     0.016550000000     0          
O        O      0.215200000000     0.889150000000     0.114750000000     0          
O        O      0.465250000000     0.953700000000     0.129625000000     0          
O        O      0.396500000000     0.949350000000     0.119525000000     0          
O        O      0.426050000000     0.500000000000     0.125000000000     0          
O        O      0.088650000000     0.605650000000     0.130975000000     0          
O        O      0.096500000000     0.661550000000     0.134025000000     0          
T        Si     0.069600000000     0.635450000000     0.141800000000     0          
T        Si     0.131750000000     0.668000000000     0.108750000000     0          
T        Si     0.427450000000     0.967500000000     0.140475000000     0          
O        O      0.284800000000     0.610850000000     0.239750000000     0          
O        O      0.034750000000     0.546300000000     0.004625000000     0          
O        O      0.103500000000     0.550650000000     0.244525000000     0          
O        O      0.073950000000     0.500000000000     0.000000000000     0          
O        O      0.411350000000     0.894350000000     0.005975000000     0          
O        O      0.403500000000     0.838450000000     0.009025000000     0          
T        Si     0.430400000000     0.864550000000     0.016800000000     0          
T        Si     0.368250000000     0.832000000000     0.233750000000     0          
T        Si     0.072550000000     0.532500000000     0.015475000000     0          
O        O      0.215200000000     0.610850000000     0.135250000000     0          
O        O      0.465250000000     0.546300000000     0.120375000000     0          
O        O      0.396500000000     0.550650000000     0.130475000000     0          
O        O      0.088650000000     0.894350000000     0.119025000000     0          
O        O      0.096500000000     0.838450000000     0.115975000000     0          
T        Si     0.069600000000     0.864550000000     0.108200000000     0          
T        Si     0.131750000000     0.832000000000     0.141250000000     0          
T        Si     0.427450000000     0.532500000000     0.109525000000     0          
O        O      0.284800000000     0.889150000000     0.010250000000     0          
O        O      0.034750000000     0.953700000000     0.245375000000     0          
O        O      0.103500000000     0.949350000000     0.005475000000     0          
O        O      0.411350000000     0.605650000000     0.244025000000     0          
O        O      0.403500000000     0.661550000000     0.240975000000     0          
T        Si     0.430400000000     0.635450000000     0.233200000000     0          
T        Si     0.368250000000     0.668000000000     0.016250000000     0          
T        Si     0.072550000000     0.967500000000     0.234525000000     0          
O        O      0.000000000000     0.906650000000     0.112650000000     0          
O        O      0.034800000000     0.860850000000     0.135250000000     0          
O        O      0.000000000000     0.891450000000     0.187500000000     0          
O        O      0.284750000000     0.796300000000     0.120375000000     0          
O        O      0.353500000000     0.800650000000     0.130475000000     0          
O        O      0.323950000000     0.750000000000     0.125000000000     0          
O        O      0.328250000000     0.783150000000     0.062500000000     0          
O        O      0.192000000000     0.614850000000     0.062500000000     0          
O        O      0.161350000000     0.644350000000     0.119025000000     0          
O        O      0.153500000000     0.588450000000     0.115975000000     0          
O        O      0.127750000000     0.583450000000     0.187500000000     0          
O        O      0.250000000000     0.699700000000     0.062500000000     0          
T        Si     0.180400000000     0.614550000000     0.108200000000     0          
T        Si     0.118250000000     0.582000000000     0.141250000000     0          
T        Si     0.322550000000     0.782500000000     0.109525000000     0          
T        Si     0.000000000000     0.879950000000     0.142675000000     0          
T        Si     0.250000000000     0.691000000000     0.108450000000     0          
O        O      0.000000000000     0.593350000000     0.237650000000     0          
O        O      0.465200000000     0.639150000000     0.010250000000     0          
O        O      0.000000000000     0.608550000000     0.062500000000     0          
O        O      0.215250000000     0.703700000000     0.245375000000     0          
O        O      0.146500000000     0.699350000000     0.005475000000     0          
O        O      0.176050000000     0.750000000000     0.000000000000     0          
O        O      0.171750000000     0.716850000000     0.187500000000     0          
O        O      0.308000000000     0.885150000000     0.187500000000     0          
O        O      0.338650000000     0.855650000000     0.244025000000     0          
O        O      0.346500000000     0.911550000000     0.240975000000     0          
O        O      0.372250000000     0.916550000000     0.062500000000     0          
O        O      0.250000000000     0.800300000000     0.187500000000     0          
T        Si     0.319600000000     0.885450000000     0.233200000000     0          
T        Si     0.381750000000     0.918000000000     0.016250000000     0          
T        Si     0.177450000000     0.717500000000     0.234525000000     0          
T        Si     0.000000000000     0.620050000000     0.017675000000     0          
T        Si     0.250000000000     0.809000000000     0.233450000000     0          
O        O      0.000000000000     0.593350000000     0.137350000000     0          
O        O      0.034800000000     0.639150000000     0.114750000000     0          
O        O      0.284750000000     0.703700000000     0.129625000000     0          
O        O      0.353500000000     0.699350000000     0.119525000000     0          
O        O      0.328250000000     0.716850000000     0.187500000000     0          
O        O      0.192000000000     0.885150000000     0.187500000000     0          
O        O      0.161350000000     0.855650000000     0.130975000000     0          
O        O      0.153500000000     0.911550000000     0.134025000000     0          
O        O      0.127750000000     0.916550000000     0.062500000000     0          
T        Si     0.180400000000     0.885450000000     0.141800000000     0          
T        Si     0.118250000000     0.918000000000     0.108750000000     0          
T        Si     0.322550000000     0.717500000000     0.140475000000     0          
T        Si     0.000000000000     0.620050000000     0.107325000000     0          
T        Si     0.250000000000     0.809000000000     0.141550000000     0          
O        O      0.000000000000     0.906650000000     0.012350000000     0          
O        O      0.465200000000     0.860850000000     0.239750000000     0          
O        O      0.215250000000     0.796300000000     0.004625000000     0          
O        O      0.146500000000     0.800650000000     0.244525000000     0          
O        O      0.171750000000     0.783150000000     0.062500000000     0          
O        O      0.308000000000     0.614850000000     0.062500000000     0          
O        O      0.338650000000     0.644350000000     0.005975000000     0          
O        O      0.346500000000     0.588450000000     0.009025000000     0          
O        O      0.372250000000     0.583450000000     0.187500000000     0          
T        Si     0.319600000000     0.614550000000     0.016800000000     0          
T        Si     0.381750000000     0.582000000000     0.233750000000     0          
T        Si     0.177450000000     0.782500000000     0.015475000000     0          
T        Si     0.000000000000     0.879950000000     0.232325000000     0          
T        Si     0.250000000000     0.691000000000     0.016550000000     0          
O        O      0.465200000000     0.639150000000     0.114750000000     0          
O        O      0.215250000000     0.703700000000     0.129625000000     0          
O        O      0.146500000000     0.699350000000     0.119525000000     0          
O        O      0.176050000000     0.750000000000     0.125000000000     0          
O        O      0.338650000000     0.855650000000     0.130975000000     0          
O        O      0.346500000000     0.911550000000     0.134025000000     0          
T        Si     0.319600000000     0.885450000000     0.141800000000     0          
T        Si     0.381750000000     0.918000000000     0.108750000000     0          
T        Si     0.177450000000     0.717500000000     0.140475000000     0          
O        O      0.034800000000     0.860850000000     0.239750000000     0          
O        O      0.284750000000     0.796300000000     0.004625000000     0          
O        O      0.353500000000     0.800650000000     0.244525000000     0          
O        O      0.323950000000     0.750000000000     0.000000000000     0          
O        O      0.161350000000     0.644350000000     0.005975000000     0          
O        O      0.153500000000     0.588450000000     0.009025000000     0          
T        Si     0.180400000000     0.614550000000     0.016800000000     0          
T        Si     0.118250000000     0.582000000000     0.233750000000     0          
T        Si     0.322550000000     0.782500000000     0.015475000000     0          
O        O      0.465200000000     0.860850000000     0.135250000000     0          
O        O      0.215250000000     0.796300000000     0.120375000000     0          
O        O      0.146500000000     0.800650000000     0.130475000000     0          
O        O      0.338650000000     0.644350000000     0.119025000000     0          
O        O      0.346500000000     0.588450000000     0.115975000000     0          
T        Si     0.319600000000     0.614550000000     0.108200000000     0          
T        Si     0.381750000000     0.582000000000     0.141250000000     0          
T        Si     0.177450000000     0.782500000000     0.109525000000     0          
O        O      0.034800000000     0.639150000000     0.010250000000     0          
O        O      0.284750000000     0.703700000000     0.245375000000     0          
O        O      0.353500000000     0.699350000000     0.005475000000     0          
O        O      0.161350000000     0.855650000000     0.244025000000     0          
O        O      0.153500000000     0.911550000000     0.240975000000     0          
T        Si     0.180400000000     0.885450000000     0.233200000000     0          
T        Si     0.118250000000     0.918000000000     0.016250000000     0          
T        Si     0.322550000000     0.717500000000     0.234525000000     0          
O        O      0.250000000000     0.656650000000     0.362650000000     0          
O        O      0.284800000000     0.610850000000     0.385250000000     0          
O        O      0.250000000000     0.641450000000     0.437500000000     0          
O        O      0.034750000000     0.546300000000     0.370375000000     0          
O        O      0.103500000000     0.550650000000     0.380475000000     0          
O        O      0.073950000000     0.500000000000     0.375000000000     0          
O        O      0.078250000000     0.533150000000     0.312500000000     0          
O        O      0.442000000000     0.864850000000     0.312500000000     0          
O        O      0.411350000000     0.894350000000     0.369025000000     0          
O        O      0.403500000000     0.838450000000     0.365975000000     0          
O        O      0.377750000000     0.833450000000     0.437500000000     0          
O        O      0.000000000000     0.949700000000     0.312500000000     0          
T        Si     0.430400000000     0.864550000000     0.358200000000     0          
T        Si     0.368250000000     0.832000000000     0.391250000000     0          
T        Si     0.072550000000     0.532500000000     0.359525000000     0          
T        Si     0.250000000000     0.629950000000     0.392675000000     0          
T        Si     0.000000000000     0.941000000000     0.358450000000     0          
O        O      0.250000000000     0.843350000000     0.487650000000     0          
O        O      0.215200000000     0.889150000000     0.260250000000     0          
O        O      0.250000000000     0.858550000000     0.312500000000     0          
O        O      0.465250000000     0.953700000000     0.495375000000     0          
O        O      0.396500000000     0.949350000000     0.255475000000     0          
O        O      0.426050000000     0.500000000000     0.250000000000     0          
O        O      0.421750000000     0.966850000000     0.437500000000     0          
O        O      0.058000000000     0.635150000000     0.437500000000     0          
O        O      0.088650000000     0.605650000000     0.494025000000     0          
O        O      0.096500000000     0.661550000000     0.490975000000     0          
O        O      0.122250000000     0.666550000000     0.312500000000     0          
O        O      0.000000000000     0.550300000000     0.437500000000     0          
T        Si     0.069600000000     0.635450000000     0.483200000000     0          
T        Si     0.131750000000     0.668000000000     0.266250000000     0          
T        Si     0.427450000000     0.967500000000     0.484525000000     0          
T        Si     0.250000000000     0.870050000000     0.267675000000     0          
T        Si     0.000000000000     0.559000000000     0.483450000000     0          
O        O      0.250000000000     0.843350000000     0.387350000000     0          
O        O      0.284800000000     0.889150000000     0.364750000000     0          
O        O      0.034750000000     0.953700000000     0.379625000000     0          
O        O      0.103500000000     0.949350000000     0.369525000000     0          
O        O      0.078250000000     0.966850000000     0.437500000000     0          
O        O      0.442000000000     0.635150000000     0.437500000000     0          
O        O      0.411350000000     0.605650000000     0.380975000000     0          
O        O      0.403500000000     0.661550000000     0.384025000000     0          
O        O      0.377750000000     0.666550000000     0.312500000000     0          
T        Si     0.430400000000     0.635450000000     0.391800000000     0          
T        Si     0.368250000000     0.668000000000     0.358750000000     0          
T        Si     0.072550000000     0.967500000000     0.390475000000     0          
T        Si     0.250000000000     0.870050000000     0.357325000000     0          
T        Si     0.000000000000     0.559000000000     0.391550000000     0          
O        O      0.250000000000     0.656650000000     0.262350000000     0          
O        O      0.215200000000     0.610850000000     0.489750000000     0          
O        O      0.465250000000     0.546300000000     0.254625000000     0          
O        O      0.396500000000     0.550650000000     0.494525000000     0          
O        O      0.421750000000     0.533150000000     0.312500000000     0          
O        O      0.058000000000     0.864850000000     0.312500000000     0          
O        O      0.088650000000     0.894350000000     0.255975000000     0          
O        O      0.096500000000     0.838450000000     0.259025000000     0          
O        O      0.122250000000     0.833450000000     0.437500000000     0          
T        Si     0.069600000000     0.864550000000     0.266800000000     0          
T        Si     0.131750000000     0.832000000000     0.483750000000     0          
T        Si     0.427450000000     0.532500000000     0.265475000000     0          
T        Si     0.250000000000     0.629950000000     0.482325000000     0          
T        Si     0.000000000000     0.941000000000     0.266550000000     0          
O        O      0.215200000000     0.889150000000     0.364750000000     0          
O        O      0.465250000000     0.953700000000     0.379625000000     0          
O        O      0.396500000000     0.949350000000     0.369525000000     0          
O        O      0.426050000000     0.500000000000     0.375000000000     0          
O        O      0.088650000000     0.605650000000     0.380975000000     0          
O        O      0.096500000000     0.661550000000     0.384025000000     0          
T        Si     0.069600000000     0.635450000000     0.391800000000     0          
T        Si     0.131750000000     0.668000000000     0.358750000000     0          
T        Si     0.427450000000     0.967500000000     0.390475000000     0          
O        O      0.284800000000     0.610850000000     0.489750000000     0          
O        O      0.034750000000     0.546300000000     0.254625000000     0          
O        O      0.103500000000     0.550650000000     0.494525000000     0          
O        O      0.073950000000     0.500000000000     0.250000000000     0          
O        O      0.411350000000     0.894350000000     0.255975000000     0          
O        O      0.403500000000     0.838450000000     0.259025000000     0          
T        Si     0.430400000000     0.864550000000     0.266800000000     0          
T        Si     0.368250000000     0.832000000000     0.483750000000     0          
T        Si     0.072550000000     0.532500000000     0.265475000000     0          
O        O      0.215200000000     0.610850000000     0.385250000000     0          
O        O      0.465250000000     0.546300000000     0.370375000000     0          
O        O      0.396500000000     0.550650000000     0.380475000000     0          
O        O      0.088650000000     0.894350000000     0.369025000000     0          
O        O      0.096500000000     0.838450000000     0.365975000000     0          
T        Si     0.069600000000     0.864550000000     0.358200000000     0          
T        Si     0.131750000000     0.832000000000     0.391250000000     0          
T        Si     0.427450000000     0.532500000000     0.359525000000     0          
O        O      0.284800000000     0.889150000000     0.260250000000     0          
O        O      0.034750000000     0.953700000000     0.495375000000     0          
O        O      0.103500000000     0.949350000000     0.255475000000     0          
O        O      0.411350000000     0.605650000000     0.494025000000     0          
O        O      0.403500000000     0.661550000000     0.490975000000     0          
T        Si     0.430400000000     0.635450000000     0.483200000000     0          
T        Si     0.368250000000     0.668000000000     0.266250000000     0          
T        Si     0.072550000000     0.967500000000     0.484525000000     0          
O        O      0.000000000000     0.906650000000     0.362650000000     0          
O        O      0.034800000000     0.860850000000     0.385250000000     0          
O        O      0.000000000000     0.891450000000     0.437500000000     0          
O        O      0.284750000000     0.796300000000     0.370375000000     0          
O        O      0.353500000000     0.800650000000     0.380475000000     0          
O        O      0.323950000000     0.750000000000     0.375000000000     0          
O        O      0.328250000000     0.783150000000     0.312500000000     0          
O        O      0.192000000000     0.614850000000     0.312500000000     0          
O        O      0.161350000000     0.644350000000     0.369025000000     0          
O        O      0.153500000000     0.588450000000     0.365975000000     0          
O        O      0.127750000000     0.583450000000     0.437500000000     0          
O        O      0.250000000000     0.699700000000     0.312500000000     0          
T        Si     0.180400000000     0.614550000000     0.358200000000     0          
T        Si     0.118250000000     0.582000000000     0.391250000000     0          
T        Si     0.322550000000     0.782500000000     0.359525000000     0          
T        Si     0.000000000000     0.879950000000     0.392675000000     0          
T        Si     0.250000000000     0.691000000000     0.358450000000     0          
O        O      0.000000000000     0.593350000000     0.487650000000     0          
O        O      0.465200000000     0.639150000000     0.260250000000     0          
O        O      0.000000000000     0.608550000000     0.312500000000     0          
O        O      0.215250000000     0.703700000000     0.495375000000     0          
O        O      0.146500000000     0.699350000000     0.255475000000     0          
O        O      0.176050000000     0.750000000000     0.250000000000     0          
O        O      0.171750000000     0.716850000000     0.437500000000     0          
O        O      0.308000000000     0.885150000000     0.437500000000     0          
O        O      0.338650000000     0.855650000000     0.494025000000     0          
O        O      0.346500000000     0.911550000000     0.490975000000     0          
O        O      0.372250000000     0.916550000000     0.312500000000     0          
O        O      0.250000000000     0.800300000000     0.437500000000     0          
T        Si     0.319600000000     0.885450000000     0.483200000000     0          
T        Si     0.381750000000     0.918000000000     0.266250000000     0          
T        Si     0.177450000000     0.717500000000     0.484525000000     0          
T        Si     0.000000000000     0.620050000000     0.267675000000     0          
T        Si     0.250000000000     0.809000000000     0.483450000000     0          
O        O      0.000000000000     0.593350000000     0.387350000000     0          
O        O      0.034800000000     0.639150000000     0.364750000000     0          
O        O      0.284750000000     0.703700000000     0.379625000000     0          
O        O      0.353500000000     0.699350000000     0.369525000000     0          
O        O      0.328250000000     0.716850000000     0.437500000000     0          
O        O      0.192000000000     0.885150000000     0.437500000000     0          
O        O      0.161350000000     0.855650000000     0.380975000000     0          
O        O      0.153500000000     0.911550000000     0.384025000000     0          
O        O      0.127750000000     0.916550000000     0.312500000000     0          
T        Si     0.180400000000     0.885450000000     0.391800000000     0          
T        Si     0.118250000000     0.918000000000     0.358750000000     0          
T        Si     0.322550000000     0.717500000000     0.390475000000     0          
T        Si     0.000000000000     0.620050000000     0.357325000000     0          
T        Si     0.250000000000     0.809000000000     0.391550000000     0          
O        O      0.000000000000     0.906650000000     0.262350000000     0          
O        O      0.465200000000     0.860850000000     0.489750000000     0          
O        O      0.215250000000     0.796300000000     0.254625000000     0          
O        O      0.146500000000     0.800650000000     0.494525000000     0          
O        O      0.171750000000     0.783150000000     0.312500000000     0          
O        O      0.308000000000     0.614850000000     0.312500000000     0          
O        O      0.338650000000     0.644350000000     0.255975000000     0          
O        O      0.346500000000     0.588450000000     0.259025000000     0          
O        O      0.372250000000     0.583450000000     0.437500000000     0          
T        Si     0.319600000000     0.614550000000     0.266800000000     0          
T        Si     0.381750000000     0.582000000000     0.483750000000     0          
T        Si     0.177450000000     0.782500000000     0.265475000000     0          
T        Si     0.000000000000     0.879950000000     0.482325000000     0          
T        Si     0.250000000000     0.691000000000     0.266550000000     0          
O        O      0.465200000000     0.639150000000     0.364750000000     0          
O        O      0.215250000000     0.703700000000     0.379625000000     0          
O        O      0.146500000000     0.699350000000     0.369525000000     0          
O        O      0.176050000000     0.750000000000     0.375000000000     0          
O        O      0.338650000000     0.855650000000     0.380975000000     0          
O        O      0.346500000000     0.911550000000     0.384025000000     0          
T        Si     0.319600000000     0.885450000000     0.391800000000     0          
T        Si     0.381750000000     0.918000000000     0.358750000000     0          
T        Si     0.177450000000     0.717500000000     0.390475000000     0          
O        O      0.034800000000     0.860850000000     0.489750000000     0          
O        O      0.284750000000     0.796300000000     0.254625000000     0          
O        O      0.353500000000     0.800650000000     0.494525000000     0          
O        O      0.323950000000     0.750000000000     0.250000000000     0          
O        O      0.161350000000     0.644350000000     0.255975000000     0          
O        O      0.153500000000     0.588450000000     0.259025000000     0          
T        Si     0.180400000000     0.614550000000     0.266800000000     0          
T        Si     0.118250000000     0.582000000000     0.483750000000     0          
T        Si     0.322550000000     0.782500000000     0.265475000000     0          
O        O      0.465200000000     0.860850000000     0.385250000000     0          
O        O      0.215250000000     0.796300000000     0.370375000000     0          
O        O      0.146500000000     0.800650000000     0.380475000000     0          
O        O      0.338650000000     0.644350000000     0.369025000000     0          
O        O      0.346500000000     0.588450000000     0.365975000000     0          
T        Si     0.319600000000     0.614550000000     0.358200000000     0          
T        Si     0.381750000000     0.582000000000     0.391250000000     0          
T        Si     0.177450000000     0.782500000000     0.359525000000     0          
O        O      0.034800000000     0.639150000000     0.260250000000     0          
O        O      0.284750000000     0.703700000000     0.495375000000     0          
O        O      0.353500000000     0.699350000000     0.255475000000     0          
O        O      0.161350000000     0.855650000000     0.494025000000     0          
O        O      0.153500000000     0.911550000000     0.490975000000     0          
T        Si     0.180400000000     0.885450000000     0.483200000000     0          
T        Si     0.118250000000     0.918000000000     0.266250000000     0          
T        Si     0.322550000000     0.717500000000     0.484525000000     0          
O        O      0.250000000000     0.656650000000     0.612650000000     0          
O        O      0.284800000000     0.610850000000     0.635250000000     0          
O        O      0.250000000000     0.641450000000     0.687500000000     0          
O        O      0.034750000000     0.546300000000     0.620375000000     0          
O        O      0.103500000000     0.550650000000     0.630475000000     0          
O        O      0.073950000000     0.500000000000     0.625000000000     0          
O        O      0.078250000000     0.533150000000     0.562500000000     0          
O        O      0.442000000000     0.864850000000     0.562500000000     0          
O        O      0.411350000000     0.894350000000     0.619025000000     0          
O        O      0.403500000000     0.838450000000     0.615975000000     0          
O        O      0.377750000000     0.833450000000     0.687500000000     0          
O        O      0.000000000000     0.949700000000     0.562500000000     0          
T        Si     0.430400000000     0.864550000000     0.608200000000     0          
T        Si     0.368250000000     0.832000000000     0.641250000000     0          
T        Si     0.072550000000     0.532500000000     0.609525000000     0          
T        Si     0.250000000000     0.629950000000     0.642675000000     0          
T        Si     0.000000000000     0.941000000000     0.608450000000     0          
O        O      0.250000000000     0.843350000000     0.737650000000     0          
O        O      0.215200000000     0.889150000000     0.510250000000     0          
O        O      0.250000000000     0.858550000000     0.562500000000     0          
O        O      0.465250000000     0.953700000000     0.745375000000     0          
O        O      0.396500000000     0.949350000000     0.505475000000     0          
O        O      0.426050000000     0.500000000000     0.500000000000     0          
O        O      0.421750000000     0.966850000000     0.687500000000     0          
O        O      0.058000000000     0.635150000000     0.687500000000     0          
O        O      0.088650000000     0.605650000000     0.744025000000     0          
O        O      0.096500000000     0.661550000000     0.740975000000     0          
O        O      0.122250000000     0.666550000000     0.562500000000     0          
O        O      0.000000000000     0.550300000000     0.687500000000     0          
T        Si     0.069600000000     0.635450000000     0.733200000000     0          
T        Si     0.131750000000     0.668000000000     0.516250000000     0          
T        Si     0.427450000000     0.967500000000     0.734525000000     0          
T        Si     0.250000000000     0.870050000000     0.517675000000     0          
T        Si     0.000000000000     0.559000000000     0.733450000000     0          
O        O      0.250000000000     0.843350000000     0.637350000000     0          
O        O      0.284800000000     0.889150000000     0.614750000000     0          
O        O      0.034750000000     0.953700000000     0.629625000000     0          
O        O      0.103500000000     0.949350000000     0.619525000000     0          
O        O      0.078250000000     0.966850000000     0.687500000000     0          
O        O      0.442000000000     0.635150000000     0.687500000000     0          
O        O      0.411350000000     0.605650000000     0.630975000000     0          
O        O      0.403500000000     0.661550000000     0.634025000000     0          
O        O      0.377750000000     0.666550000000     0.562500000000     0          
T        Si     0.430400000000     0.635450000000     0.641800000000     0          
T        Si     0.368250000000     0.668000000000     0.608750000000     0          
T        Si     0.072550000000     0.967500000000     0.640475000000     0          
T        Si     0.250000000000     0.870050000000     0.607325000000     0          
T        Si     0.000000000000     0.559000000000     0.641550000000     0          
O        O      0.250000000000     0.656650000000     0.512350000000     0          
O        O      0.215200000000     0.610850000000     0.739750000000     0          
O        O      0.465250000000     0.546300000000     0.504625000000     0          
O        O      0.396500000000     0.550650000000     0.744525000000     0          
O        O      0.421750000000     0.533150000000     0.562500000000     0          
O        O      0.058000000000     0.864850000000     0.562500000000     0          
O        O      0.088650000000     0.894350000000     0.505975000000     0          
O        O      0.096500000000     0.838450000000     0.509025000000     0          
O        O      0.122250000000     0.833450000000     0.687500000000     0          
T        Si     0.069600000000     0.864550000000     0.516800000000     0          
T        Si     0.131750000000     0.832000000000     0.733750000000     0          
T        Si     0.427450000000     0.532500000000     0.515475000000     0          
T        Si     0.250000000000     0.629950000000     0.732325000000     0          
T        Si     0.000000000000     0.941000000000     0.516550000000     0          
O        O      0.215200000000     0.889150000000     0.614750000000     0          
O        O      0.465250000000     0.953700000000     0.629625000000     0          
O        O      0.396500000000     0.949350000000     0.619525000000     0          
O        O      0.426050000000     0.500000000000     0.625000000000     0          
O        O      0.088650000000     0.605650000000     0.630975000000     0          
O        O      0.096500000000     0.661550000000     0.634025000000     0          
T        Si     0.069600000000     0.635450000000     0.641800000000     0          
T        Si     0.131750000000     0.668000000000     0.608750000000     0          
T        Si     0.427450000000     0.967500000000     0.640475000000     0          
O        O      0.284800000000     0.610850000000     0.739750000000     0          
O        O      0.034750000000     0.546300000000     0.504625000000     0          
O        O      0.103500000000     0.550650000000     0.744525000000     0          
O        O      0.073950000000     0.500000000000     0.500000000000     0          
O        O      0.411350000000     0.894350000000     0.505975000000     0          
O        O      0.403500000000     0.838450000000     0.509025000000     0          
T        Si     0.430400000000     0.864550000000     0.516800000000     0          
T        Si     0.368250000000     0.832000000000     0.733750000000     0          
T        Si     0.072550000000     0.532500000000     0.515475000000     0          
O        O      0.215200000000     0.610850000000     0.635250000000     0          
O        O      0.465250000000     0.546300000000     0.620375000000     0          
O        O      0.396500000000     0.550650000000     0.630475000000     0          
O        O      0.088650000000     0.894350000000     0.619025000000     0          
O        O      0.096500000000     0.838450000000     0.615975000000     0          
T        Si     0.069600000000     0.864550000000     0.608200000000     0          
T        Si     0.131750000000     0.832000000000     0.641250000000     0          
T        Si     0.427450000000     0.532500000000     0.609525000000     0          
O        O      0.284800000000     0.889150000000     0.510250000000     0          
O        O      0.034750000000     0.953700000000     0.745375000000     0          
O        O      0.103500000000     0.949350000000     0.505475000000     0          
O        O      0.411350000000     0.605650000000     0.744025000000     0          
O        O      0.403500000000     0.661550000000     0.740975000000     0          
T        Si     0.430400000000     0.635450000000     0.733200000000     0          
T        Si     0.368250000000     0.668000000000     0.516250000000     0          
T        Si     0.072550000000     0.967500000000     0.734525000000     0          
O        O      0.000000000000     0.906650000000     0.612650000000     0          
O        O      0.034800000000     0.860850000000     0.635250000000     0          
O        O      0.000000000000     0.891450000000     0.687500000000     0          
O        O      0.284750000000     0.796300000000     0.620375000000     0          
O        O      0.353500000000     0.800650000000     0.630475000000     0          
O        O      0.323950000000     0.750000000000     0.625000000000     0          
O        O      0.328250000000     0.783150000000     0.562500000000     0          
O        O      0.192000000000     0.614850000000     0.562500000000     0          
O        O      0.161350000000     0.644350000000     0.619025000000     0          
O        O      0.153500000000     0.588450000000     0.615975000000     0          
O        O      0.127750000000     0.583450000000     0.687500000000     0          
O        O      0.250000000000     0.699700000000     0.562500000000     0          
T        Si     0.180400000000     0.614550000000     0.608200000000     0          
T        Si     0.118250000000     0.582000000000     0.641250000000     0          
T        Si     0.322550000000     0.782500000000     0.609525000000     0          
T        Si     0.000000000000     0.879950000000     0.642675000000     0          
T        Si     0.250000000000     0.691000000000     0.608450000000     0          
O        O      0.000000000000     0.593350000000     0.737650000000     0          
O        O      0.465200000000     0.639150000000     0.510250000000     0          
O        O      0.000000000000     0.608550000000     0.562500000000     0          
O        O      0.215250000000     0.703700000000     0.745375000000     0          
O        O      0.146500000000     0.699350000000     0.505475000000     0          
O        O      0.176050000000     0.750000000000     0.500000000000     0          
O        O      0.171750000000     0.716850000000     0.687500000000     0          
O        O      0.308000000000     0.885150000000     0.687500000000     0          
O        O      0.338650000000     0.855650000000     0.744025000000     0          
O        O      0.346500000000     0.911550000000     0.740975000000     0          
O        O      0.372250000000     0.916550000000     0.562500000000     0          
O        O      0.250000000000     0.800300000000     0.687500000000     0          
T        Si     0.319600000000     0.885450000000     0.733200000000     0          
T        Si     0.381750000000     0.918000000000     0.516250000000     0          
T        Si     0.177450000000     0.717500000000     0.734525000000     0          
T        Si     0.000000000000     0.620050000000     0.517675000000     0          
T        Si     0.250000000000     0.809000000000     0.733450000000     0          
O        O      0.000000000000     0.593350000000     0.637350000000     0          
O        O      0.034800000000     0.639150000000     0.614750000000     0          
O        O      0.284750000000     0.703700000000     0.629625000000     0          
O        O      0.353500000000     0.699350000000     0.619525000000     0          
O        O      0.328250000000     0.716850000000     0.687500000000     0          
O        O      0.192000000000     0.885150000000     0.687500000000     0          
O        O      0.161350000000     0.855650000000     0.630975000000     0          
O        O      0.153500000000     0.911550000000     0.634025000000     0          
O        O      0.127750000000     0.916550000000     0.562500000000     0          
T        Si     0.180400000000     0.885450000000     0.641800000000     0          
T        Si     0.118250000000     0.918000000000     0.608750000000     0          
T        Si     0.322550000000     0.717500000000     0.640475000000     0          
T        Si     0.000000000000     0.620050000000     0.607325000000     0          
T        Si     0.250000000000     0.809000000000     0.641550000000     0          
O        O      0.000000000000     0.906650000000     0.512350000000     0          
O        O      0.465200000000     0.860850000000     0.739750000000     0          
O        O      0.215250000000     0.796300000000     0.504625000000     0          
O        O      0.146500000000     0.800650000000     0.744525000000     0          
O        O      0.171750000000     0.783150000000     0.562500000000     0          
O        O      0.308000000000     0.614850000000     0.562500000000     0          
O        O      0.338650000000     0.644350000000     0.505975000000     0          
O        O      0.346500000000     0.588450000000     0.509025000000     0          
O        O      0.372250000000     0.583450000000     0.687500000000     0          
T        Si     0.319600000000     0.614550000000     0.516800000000     0          
T        Si     0.381750000000     0.582000000000     0.733750000000     0          
T        Si     0.177450000000     0.782500000000     0.515475000000     0          
T        Si     0.000000000000     0.879950000000     0.732325000000     0          
T        Si     0.250000000000     0.691000000000     0.516550000000     0          
O        O      0.465200000000     0.639150000000     0.614750000000     0          
O        O      0.215250000000     0.703700000000     0.629625000000     0          
O        O      0.146500000000     0.699350000000     0.619525000000     0          
O        O      0.176050000000     0.750000000000     0.625000000000     0          
O        O      0.338650000000     0.855650000000     0.630975000000     0          
O        O      0.346500000000     0.911550000000     0.634025000000     0          
T        Si     0.319600000000     0.885450000000     0.641800000000     0          
T        Si     0.381750000000     0.918000000000     0.608750000000     0          
T        Si     0.177450000000     0.717500000000     0.640475000000     0          
O        O      0.034800000000     0.860850000000     0.739750000000     0          
O        O      0.284750000000     0.796300000000     0.504625000000     0          
O        O      0.353500000000     0.800650000000     0.744525000000     0          
O        O      0.323950000000     0.750000000000     0.500000000000     0          
O        O      0.161350000000     0.644350000000     0.505975000000     0          
O        O      0.153500000000     0.588450000000     0.509025000000     0          
T        Si     0.180400000000     0.614550000000     0.516800000000     0          
T        Si     0.118250000000     0.582000000000     0.733750000000     0          
T        Si     0.322550000000     0.782500000000     0.515475000000     0          
O        O      0.465200000000     0.860850000000     0.635250000000     0          
O        O      0.215250000000     0.796300000000     0.620375000000     0          
O        O      0.146500000000     0.800650000000     0.630475000000     0          
O        O      0.338650000000     0.644350000000     0.619025000000     0          
O        O      0.346500000000     0.588450000000     0.615975000000     0          
T        Si     0.319600000000     0.614550000000     0.608200000000     0          
T        Si     0.381750000000     0.582000000000     0.641250000000     0          
T        Si     0.177450000000     0.782500000000     0.609525000000     0          
O        O      0.034800000000     0.639150000000     0.510250000000     0          
O        O      0.284750000000     0.703700000000     0.745375000000     0          
O        O      0.353500000000     0.699350000000     0.505475000000     0          
O        O      0.161350000000     0.855650000000     0.744025000000     0          
O        O      0.153500000000     0.911550000000     0.740975000000     0          
T        Si     0.180400000000     0.885450000000     0.733200000000     0          
T        Si     0.118250000000     0.918000000000     0.516250000000     0          
T        Si     0.322550000000     0.717500000000     0.734525000000     0          
O        O      0.250000000000     0.656650000000     0.862650000000     0          
O        O      0.284800000000     0.610850000000     0.885250000000     0          
O        O      0.250000000000     0.641450000000     0.937500000000     0          
O        O      0.034750000000     0.546300000000     0.870375000000     0          
O        O      0.103500000000     0.550650000000     0.880475000000     0          
O        O      0.073950000000     0.500000000000     0.875000000000     0          
O        O      0.078250000000     0.533150000000     0.812500000000     0          
O        O      0.442000000000     0.864850000000     0.812500000000     0          
O        O      0.411350000000     0.894350000000     0.869025000000     0          
O        O      0.403500000000     0.838450000000     0.865975000000     0          
O        O      0.377750000000     0.833450000000     0.937500000000     0          
O        O      0.000000000000     0.949700000000     0.812500000000     0          
T        Si     0.430400000000     0.864550000000     0.858200000000     0          
T        Si     0.368250000000     0.832000000000     0.891250000000     0          
T        Si     0.072550000000     0.532500000000     0.859525000000     0          
T        Si     0.250000000000     0.629950000000     0.892675000000     0          
T        Si     0.000000000000     0.941000000000     0.858450000000     0          
O        O      0.250000000000     0.843350000000     0.987650000000     0          
O        O      0.215200000000     0.889150000000     0.760250000000     0          
O        O      0.250000000000     0.858550000000     0.812500000000     0          
O        O      0.465250000000     0.953700000000     0.995375000000     0          
O        O      0.396500000000     0.949350000000     0.755475000000     0          
O        O      0.426050000000     0.500000000000     0.750000000000     0          
O        O      0.421750000000     0.966850000000     0.937500000000     0          
O        O      0.058000000000     0.635150000000     0.937500000000     0          
O        O      0.088650000000     0.605650000000     0.994025000000     0          
O        O      0.096500000000     0.661550000000     0.990975000000     0          
O        O      0.122250000000     0.666550000000     0.812500000000     0          
O        O      0.000000000000     0.550300000000     0.937500000000     0          
T        Si     0.069600000000     0.635450000000     0.983200000000     0          
T        Si     0.131750000000     0.668000000000     0.766250000000     0          
T        Si     0.427450000000     0.967500000000     0.984525000000     0          
T        Si     0.250000000000     0.870050000000     0.767675000000     0          
T        Si     0.000000000000     0.559000000000     0.983450000000     0          
O        O      0.250000000000     0.843350000000     0.887350000000     0          
O        O      0.284800000000     0.889150000000     0.864750000000     0          
O        O      0.034750000000     0.953700000000     0.879625000000     0          
O        O      0.103500000000     0.949350000000     0.869525000000     0          
O        O      0.078250000000     0.966850000000     0.937500000000     0          
O        O      0.442000000000     0.635150000000     0.937500000000     0          
O        O      0.411350000000     0.605650000000     0.880975000000     0          
O        O      0.403500000000     0.661550000000     0.884025000000     0          
O        O      0.377750000000     0.666550000000     0.812500000000     0          
T        Si     0.430400000000     0.635450000000     0.891800000000     0          
T        Si     0.368250000000     0.668000000000     0.858750000000     0          
T        Si     0.072550000000     0.967500000000     0.890475000000     0          
T        Si     0.250000000000     0.870050000000     0.857325000000     0          
T        Si     0.000000000000     0.559000000000     0.891550000000     0          
O        O      0.250000000000     0.656650000000     0.762350000000     0          
O        O      0.215200000000     0.610850000000     0.989750000000     0          
O        O      0.465250000000     0.546300000000     0.754625000000     0          
O        O      0.396500000000     0.550650000000     0.994525000000     0          
O        O      0.421750000000     0.533150000000     0.812500000000     0          
O        O      0.058000000000     0.864850000000     0.812500000000     0          
O        O      0.088650000000     0.894350000000     0.755975000000     0          
O        O      0.096500000000     0.838450000000     0.759025000000     0          
O        O      0.122250000000     0.833450000000     0.937500000000     0          
T        Si     0.069600000000     0.864550000000     0.766800000000     0          
T        Si     0.131750000000     0.832000000000     0.983750000000     0          
T        Si     0.427450000000     0.532500000000     0.765475000000     0          
T        Si     0.250000000000     0.629950000000     0.982325000000     0          
T        Si     0.000000000000     0.941000000000     0.766550000000     0          
O        O      0.215200000000     0.889150000000     0.864750000000     0          
O        O      0.465250000000     0.953700000000     0.879625000000     0          
O        O      0.396500000000     0.949350000000     0.869525000000     0          
O        O      0.426050000000     0.500000000000     0.875000000000     0          
O        O      0.088650000000     0.605650000000     0.880975000000     0          
O        O      0.096500000000     0.661550000000     0.884025000000     0          
T        Si     0.069600000000     0.635450000000     0.891800000000     0          
T        Si     0.131750000000     0.668000000000     0.858750000000     0          
T        Si     0.427450000000     0.967500000000     0.890475000000     0          
O        O      0.284800000000     0.610850000000     0.989750000000     0          
O        O      0.034750000000     0.546300000000     0.754625000000     0          
O        O      0.103500000000     0.550650000000     0.994525000000     0          
O        O      0.073950000000     0.500000000000     0.750000000000     0          
O        O      0.411350000000     0.894350000000     0.755975000000     0          
O        O      0.403500000000     0.838450000000     0.759025000000     0          
T        Si     0.430400000000     0.864550000000     0.766800000000     0          
T        Si     0.368250000000     0.832000000000     0.983750000000     0          
T        Si     0.072550000000     0.532500000000     0.765475000000     0          
O        O      0.215200000000     0.610850000000     0.885250000000     0          
O        O      0.465250000000     0.546300000000     0.870375000000     0          
O        O      0.396500000000     0.550650000000     0.880475000000     0          
O        O      0.088650000000     0.894350000000     0.869025000000     0          
O        O      0.096500000000     0.838450000000     0.865975000000     0          
T        Si     0.069600000000     0.864550000000     0.858200000000     0          
T        Si     0.131750000000     0.832000000000     0.891250000000     0          
T        Si     0.427450000000     0.532500000000     0.859525000000     0          
O        O      0.284800000000     0.889150000000     0.760250000000     0          
O        O      0.034750000000     0.953700000000     0.995375000000     0          
O        O      0.103500000000     0.949350000000     0.755475000000     0          
O        O      0.411350000000     0.605650000000     0.994025000000     0          
O        O      0.403500000000     0.661550000000     0.990975000000     0          
T        Si     0.430400000000     0.635450000000     0.983200000000     0          
T        Si     0.368250000000     0.668000000000     0.766250000000     0          
T        Si     0.072550000000     0.967500000000     0.984525000000     0          
O        O      0.000000000000     0.906650000000     0.862650000000     0          
O        O      0.034800000000     0.860850000000     0.885250000000     0          
O        O      0.000000000000     0.891450000000     0.937500000000     0          
O        O      0.284750000000     0.796300000000     0.870375000000     0          
O        O      0.353500000000     0.800650000000     0.880475000000     0          
O        O      0.323950000000     0.750000000000     0.875000000000     0          
O        O      0.328250000000     0.783150000000     0.812500000000     0          
O        O      0.192000000000     0.614850000000     0.812500000000     0          
O        O      0.161350000000     0.644350000000     0.869025000000     0          
O        O      0.153500000000     0.588450000000     0.865975000000     0          
O        O      0.127750000000     0.583450000000     0.937500000000     0          
O        O      0.250000000000     0.699700000000     0.812500000000     0          
T        Si     0.180400000000     0.614550000000     0.858200000000     0          
T        Si     0.118250000000     0.582000000000     0.891250000000     0          
T        Si     0.322550000000     0.782500000000     0.859525000000     0          
T        Si     0.000000000000     0.879950000000     0.892675000000     0          
T        Si     0.250000000000     0.691000000000     0.858450000000     0          
O        O      0.000000000000     0.593350000000     0.987650000000     0          
O        O      0.465200000000     0.639150000000     0.760250000000     0          
O        O      0.000000000000     0.608550000000     0.812500000000     0          
O        O      0.215250000000     0.703700000000     0.995375000000     0          
O        O      0.146500000000     0.699350000000     0.755475000000     0          
O        O      0.176050000000     0.750000000000     0.750000000000     0          
O        O      0.171750000000     0.716850000000     0.937500000000     0          
O        O      0.308000000000     0.885150000000     0.937500000000     0          
O        O      0.338650000000     0.855650000000     0.994025000000     0          
O        O      0.346500000000     0.911550000000     0.990975000000     0          
O        O      0.372250000000     0.916550000000     0.812500000000     0          
O        O      0.250000000000     0.800300000000     0.937500000000     0          
T        Si     0.319600000000     0.885450000000     0.983200000000     0          
T        Si     0.381750000000     0.918000000000     0.766250000000     0          
T        Si     0.177450000000     0.717500000000     0.984525000000     0          
T        Si     0.000000000000     0.620050000000     0.767675000000     0          
T        Si     0.250000000000     0.809000000000     0.983450000000     0          
O        O      0.000000000000     0.593350000000     0.887350000000     0          
O        O      0.034800000000     0.639150000000     0.864750000000     0          
O        O      0.284750000000     0.703700000000     0.879625000000     0          
O        O      0.353500000000     0.699350000000     0.869525000000     0          
O        O      0.328250000000     0.716850000000     0.937500000000     0          
O        O      0.192000000000     0.885150000000     0.937500000000     0          
O        O      0.161350000000     0.855650000000     0.880975000000     0          
O        O      0.153500000000     0.911550000000     0.884025000000     0          
O        O      0.127750000000     0.916550000000     0.812500000000     0          
T        Si     0.180400000000     0.885450000000     0.891800000000     0          
T        Si     0.118250000000     0.918000000000     0.858750000000     0          
T        Si     0.322550000000     0.717500000000     0.890475000000     0          
T        Si     0.000000000000     0.620050000000     0.857325000000     0          
T        Si     0.250000000000     0.809000000000     0.891550000000     0          
O        O      0.000000000000     0.906650000000     0.762350000000     0          
O        O      0.465200000000     0.860850000000     0.989750000000     0          
O        O      0.215250000000     0.796300000000     0.754625000000     0          
O        O      0.146500000000     0.800650000000     0.994525000000     0          
O        O      0.171750000000     0.783150000000     0.812500000000     0          
O        O      0.308000000000     0.614850000000     0.812500000000     0          
O        O      0.338650000000     0.644350000000     0.755975000000     0          
O        O      0.346500000000     0.588450000000     0.759025000000     0          
O        O      0.372250000000     0.583450000000     0.937500000000     0          
T        Si     0.319600000000     0.614550000000     0.766800000000     0          
T        Si     0.381750000000     0.582000000000     0.983750000000     0          
T        Si     0.177450000000     0.782500000000     0.765475000000     0          
T        Si     0.000000000000     0.879950000000     0.982325000000     0          
T        Si     0.250000000000     0.691000000000     0.766550000000     0          
O        O      0.465200000000     0.639150000000     0.864750000000     0          
O        O      0.215250000000     0.703700000000     0.879625000000     0          
O        O      0.146500000000     0.699350000000     0.869525000000     0          
O        O      0.176050000000     0.750000000000     0.875000000000     0          
O        O      0.338650000000     0.855650000000     0.880975000000     0          
O        O      0.346500000000     0.911550000000     0.884025000000     0          
T        Si     0.319600000000     0.885450000000     0.891800000000     0          
T        Si     0.381750000000     0.918000000000     0.858750000000     0          
T        Si     0.177450000000     0.717500000000     0.890475000000     0          
O        O      0.034800000000     0.860850000000     0.989750000000     0          
O        O      0.284750000000     0.796300000000     0.754625000000     0          
O        O      0.353500000000     0.800650000000     0.994525000000     0          
O        O      0.323950000000     0.750000000000     0.750000000000     0          
O        O      0.161350000000     0.644350000000     0.755975000000     0          
O        O      0.153500000000     0.588450000000     0.759025000000     0          
T        Si     0.180400000000     0.614550000000     0.766800000000     0          
T        Si     0.118250000000     0.582000000000     0.983750000000     0          
T        Si     0.322550000000     0.782500000000     0.765475000000     0          
O        O      0.465200000000     0.860850000000     0.885250000000     0          
O        O      0.215250000000     0.796300000000     0.870375000000     0          
O        O      0.146500000000     0.800650000000     0.880475000000     0          
O        O      0.338650000000     0.644350000000     0.869025000000     0          
O        O      0.346500000000     0.588450000000     0.865975000000     0          
T        Si     0.319600000000     0.614550000000     0.858200000000     0          
T        Si     0.381750000000     0.582000000000     0.891250000000     0          
T        Si     0.177450000000     0.782500000000     0.859525000000     0          
O        O      0.034800000000     0.639150000000     0.760250000000     0          
O        O      0.284750000000     0.703700000000     0.995375000000     0          
O        O      0.353500000000     0.699350000000     0.755475000000     0          
O        O      0.161350000000     0.855650000000     0.994025000000     0          
O        O      0.153500000000     0.911550000000     0.990975000000     0          
T        Si     0.180400000000     0.885450000000     0.983200000000     0          
T        Si     0.118250000000     0.918000000000     0.766250000000     0          
T        Si     0.322550000000     0.717500000000     0.984525000000     0          
O        O      0.750000000000     0.156650000000     0.112650000000     0          
O        O      0.784800000000     0.110850000000     0.135250000000     0          
O        O      0.750000000000     0.141450000000     0.187500000000     0          
O        O      0.534750000000     0.046300000000     0.120375000000     0          
O        O      0.603500000000     0.050650000000     0.130475000000     0          
O        O      0.573950000000     0.000000000000     0.125000000000     0          
O        O      0.578250000000     0.033150000000     0.062500000000     0          
O        O      0.942000000000     0.364850000000     0.062500000000     0          
O        O      0.911350000000     0.394350000000     0.119025000000     0          
O        O      0.903500000000     0.338450000000     0.115975000000     0          
O        O      0.877750000000     0.333450000000     0.187500000000     0          
O        O      0.500000000000     0.449700000000     0.062500000000     0          
T        Si     0.930400000000     0.364550000000     0.108200000000     0          
T        Si     0.868250000000     0.332000000000     0.141250000000     0          
T        Si     0.572550000000     0.032500000000     0.109525000000     0          
T        Si     0.750000000000     0.129950000000     0.142675000000     0          
T        Si     0.500000000000     0.441000000000     0.108450000000     0          
O        O      0.750000000000     0.343350000000     0.237650000000     0          
O        O      0.715200000000     0.389150000000     0.010250000000     0          
O        O      0.750000000000     0.358550000000     0.062500000000     0          
O        O      0.965250000000     0.453700000000     0.245375000000     0          
O        O      0.896500000000     0.449350000000     0.005475000000     0          
O        O      0.926050000000     0.000000000000     0.000000000000     0          
O        O      0.921750000000     0.466850000000     0.187500000000     0          
O        O      0.558000000000     0.135150000000     0.187500000000     0          
O        O      0.588650000000     0.105650000000     0.244025000000     0          
O        O      0.596500000000     0.161550000000     0.240975000000     0          
O        O      0.622250000000     0.166550000000     0.062500000000     0          
O        O      0.500000000000     0.050300000000     0.187500000000     0          
T        Si     0.569600000000     0.135450000000     0.233200000000     0          
T        Si     0.631750000000     0.168000000000     0.016250000000     0          
T        Si     0.927450000000     0.467500000000     0.234525000000     0          
T        Si     0.750000000000     0.370050000000     0.017675000000     0          
T        Si     0.500000000000     0.059000000000     0.233450000000     0          
O        O      0.750000000000     0.343350000000     0.137350000000     0          
O        O      0.784800000000     0.389150000000     0.114750000000     0          
O        O      0.534750000000     0.453700000000     0.129625000000     0          
O        O      0.603500000000     0.449350000000     0.119525000000     0          
O        O      0.578250000000     0.466850000000     0.187500000000     0          
O        O      0.942000000000     0.135150000000     0.187500000000     0          
O        O      0.911350000000     0.105650000000     0.130975000000     0          
O        O      0.903500000000     0.161550000000     0.134025000000     0          
O        O      0.877750000000     0.166550000000     0.062500000000     0          
T        Si     0.930400000000     0.135450000000     0.141800000000     0          
T        Si     0.868250000000     0.168000000000     0.108750000000     0          
T        Si     0.572550000000     0.467500000000     0.140475000000     0          
T        Si     0.750000000000     0.370050000000     0.107325000000     0          
T        Si     0.500000000000     0.059000000000     0.141550000000     0          
O        O      0.750000000000     0.156650000000     0.012350000000     0          
O        O      0.715200000000     0.110850000000     0.239750000000     0          
O        O      0.965250000000     0.046300000000     0.004625000000     0          
O        O      0.896500000000     0.050650000000     0.244525000000     0          
O        O      0.921750000000     0.033150000000     0.062500000000     0          
O        O      0.558000000000     0.364850000000     0.062500000000     0          
O        O      0.588650000000     0.394350000000     0.005975000000     0          
O        O      0.596500000000     0.338450000000     0.009025000000     0          
O        O      0.622250000000     0.333450000000     0.187500000000     0          
T        Si     0.569600000000     0.364550000000     0.016800000000     0          
T        Si     0.631750000000     0.332000000000     0.233750000000     0          
T        Si     0.927450000000     0.032500000000     0.015475000000     0          
T        Si     0.750000000000     0.129950000000     0.232325000000     0          
T        Si     0.500000000000     0.441000000000     0.016550000000     0          
O        O      0.715200000000     0.389150000000     0.114750000000     0          
O        O      0.965250000000     0.453700000000     0.129625000000     0          
O        O      0.896500000000     0.449350000000     0.119525000000     0          
O        O      0.926050000000     0.000000000000     0.125000000000     0          
O        O      0.588650000000     0.105650000000     0.130975000000     0          
O        O      0.596500000000     0.161550000000     0.134025000000     0          
T        Si     0.569600000000     0.135450000000     0.141800000000     0          
T        Si     0.631750000000     0.168000000000     0.108750000000     0          
T        Si     0.927450000000     0.467500000000     0.140475000000     0          
O        O      0.784800000000     0.110850000000     0.239750000000     0          
O        O      0.534750000000     0.046300000000     0.004625000000     0          
O        O      0.603500000000     0.050650000000     0.244525000000     0          
O        O      0.573950000000     0.000000000000     0.000000000000     0          
O        O      0.911350000000     0.394350000000     0.005975000000     0          
O        O      0.903500000000     0.338450000000     0.009025000000     0          
T        Si     0.930400000000     0.364550000000     0.016800000000     0          
T        Si     0.868250000000     0.332000000000     0.233750000000     0          
T        Si     0.572550000000     0.032500000000     0.015475000000     0          
O        O      0.715200000000     0.110850000000     0.135250000000     0          
O        O      0.965250000000     0.046300000000     0.120375000000     0          
O        O      0.896500000000     0.050650000000     0.130475000000     0          
O        O      0.588650000000     0.394350000000     0.119025000000     0          
O        O      0.596500000000     0.338450000000     0.115975000000     0          
T        Si     0.569600000000     0.364550000000     0.108200000000     0          
T        Si     0.631750000000     0.332000000000     0.141250000000     0          
T        Si     0.927450000000     0.032500000000     0.109525000000     0          
O        O      0.784800000000     0.389150000000     0.010250000000     0          
O        O      0.534750000000     0.453700000000     0.245375000000     0          
O        O      0.603500000000     0.449350000000     0.005475000000     0          
O        O      0.911350000000     0.105650000000     0.244025000000     0          
O        O      0.903500000000     0.161550000000     0.240975000000     0          
T        Si     0.930400000000     0.135450000000     0.233200000000     0          
T        Si     0.868250000000     0.168000000000     0.016250000000     0          
T        Si     0.572550000000     0.467500000000     0.234525000000     0          
O        O      0.500000000000     0.406650000000     0.112650000000     0          
O        O      0.534800000000     0.360850000000     0.135250000000     0          
O        O      0.500000000000     0.391450000000     0.187500000000     0          
O        O      0.784750000000     0.296300000000     0.120375000000     0          
O        O      0.853500000000     0.300650000000     0.130475000000     0          
O        O      0.823950000000     0.250000000000     0.125000000000     0          
O        O      0.828250000000     0.283150000000     0.062500000000     0          
O        O      0.692000000000     0.114850000000     0.062500000000     0          
O        O      0.661350000000     0.144350000000     0.119025000000     0          
O        O      0.653500000000     0.088450000000     0.115975000000     0          
O        O      0.627750000000     0.083450000000     0.187500000000     0          
O        O      0.750000000000     0.199700000000     0.062500000000     0          
T        Si     0.680400000000     0.114550000000     0.108200000000     0          
T        Si     0.618250000000     0.082000000000     0.141250000000     0          
T        Si     0.822550000000     0.282500000000     0.109525000000     0          
T        Si     0.500000000000     0.379950000000     0.142675000000     0          
T        Si     0.750000000000     0.191000000000     0.108450000000     0          
O        O      0.500000000000     0.093350000000     0.237650000000     0          
O        O      0.965200000000     0.139150000000     0.010250000000     0          
O        O      0.500000000000     0.108550000000     0.062500000000     0          
O        O      0.715250000000     0.203700000000     0.245375000000     0          
O        O      0.646500000000     0.199350000000     0.005475000000     0          
O        O      0.676050000000     0.250000000000     0.000000000000     0          
O        O      0.671750000000     0.216850000000     0.187500000000     0          
O        O      0.808000000000     0.385150000000     0.187500000000     0          
O        O      0.838650000000     0.355650000000     0.244025000000     0          
O        O      0.846500000000     0.411550000000     0.240975000000     0          
O        O      0.872250000000     0.416550000000     0.062500000000     0          
O        O      0.750000000000     0.300300000000     0.187500000000     0          
T        Si     0.819600000000     0.385450000000     0.233200000000     0          
T        Si     0.881750000000     0.418000000000     0.016250000000     0          
T        Si     0.677450000000     0.217500000000     0.234525000000     0          
T        Si     0.500000000000     0.120050000000     0.017675000000     0          
T        Si     0.750000000000     0.309000000000     0.233450000000     0          
O        O      0.500000000000     0.093350000000     0.137350000000     0          
O        O      0.534800000000     0.139150000000     0.114750000000     0          
O        O      0.784750000000     0.203700000000     0.129625000000     0          
O        O      0.853500000000     0.199350000000     0.119525000000     0          
O        O      0.828250000000     0.216850000000     0.187500000000     0          
O        O      0.692000000000     0.385150000000     0.187500000000     0          
O        O      0.661350000000     0.355650000000     0.130975000000     0          
O        O      0.653500000000     0.411550000000     0.134025000000     0          
O        O      0.627750000000     0.416550000000     0.062500000000     0          
T        Si     0.680400000000     0.385450000000     0.141800000000     0          
T        Si     0.618250000000     0.418000000000     0.108750000000     0          
T        Si     0.822550000000     0.217500000000     0.140475000000     0          
T        Si     0.500000000000     0.120050000000     0.107325000000     0          
T        Si     0.750000000000     0.309000000000     0.141550000000     0          
O        O      0.500000000000     0.406650000000     0.012350000000     0          
O        O      0.965200000000     0.360850000000     0.239750000000     0          
O        O      0.715250000000     0.296300000000     0.004625000000     0          
O        O      0.646500000000     0.300650000000     0.244525000000     0          
O        O      0.671750000000     0.283150000000     0.062500000000     0          
O        O      0.808000000000     0.114850000000     0.062500000000     0          
O        O      0.838650000000     0.144350000000     0.005975000000     0          
O        O      0.846500000000     0.088450000000     0.009025000000     0          
O        O      0.872250000000     0.083450000000     0.187500000000     0          
T        Si     0.819600000000     0.114550000000     0.016800000000     0          
T        Si     0.881750000000     0.082000000000     0.233750000000     0          
T        Si     0.677450000000     0.282500000000     0.015475000000     0          
T        Si     0.500000000000     0.379950000000     0.232325000000     0          
T        Si     0.750000000000     0.191000000000     0.016550000000     0          
O        O      0.965200000000     0.139150000000     0.114750000000     0          
O        O      0.715250000000     0.203700000000     0.129625000000     0          
O        O      0.646500000000     0.199350000000     0.119525000000     0          
O        O      0.676050000000     0.250000000000     0.125000000000     0          
O        O      0.838650000000     0.355650000000     0.130975000000     0          
O        O      0.846500000000     0.411550000000     0.134025000000     0          
T        Si     0.819600000000     0.385450000000     0.141800000000     0          
T        Si     0.881750000000     0.418000000000     0.108750000000     0          
T        Si     0.677450000000     0.217500000000     0.140475000000     0          
O        O      0.534800000000     0.360850000000     0.239750000000     0          
O        O      0.784750000000     0.296300000000     0.004625000000     0          
O        O      0.853500000000     0.300650000000     0.244525000000     0          
O        O      0.823950000000     0.250000000000     0.000000000000     0          
O        O      0.661350000000     0.144350000000     0.005975000000     0          
O        O      0.653500000000     0.088450000000     0.009025000000     0          
T        Si     0.680400000000     0.114550000000     0.016800000000     0          
T        Si     0.618250000000     0.082000000000     0.233750000000     0          
T        Si     0.822550000000     0.282500000000     0.015475000000     0          
O        O      0.965200000000     0.360850000000     0.135250000000     0          
O        O      0.715250000000     0.296300000000     0.120375000000     0          
O        O      0.646500000000     0.300650000000     0.130475000000     0          
O        O      0.838650000000     0.144350000000     0.119025000000     0          
O        O      0.846500000000     0.088450000000     0.115975000000     0          
T        Si     0.819600000000     0.114550000000     0.108200000000     0          
T        Si     0.881750000000     0.082000000000     0.141250000000     0          
T        Si     0.677450000000     0.282500000000     0.109525000000     0          
O        O      0.534800000000     0.139150000000     0.010250000000     0          
O        O      0.784750000000     0.203700000000     0.245375000000     0          
O        O      0.853500000000     0.199350000000     0.005475000000     0          
O        O      0.661350000000     0.355650000000     0.244025000000     0          
O        O      0.653500000000     0.411550000000     0.240975000000     0          
T        Si     0.680400000000     0.385450000000     0.233200000000     0          
T        Si     0.618250000000     0.418000000000     0.016250000000     0          
T        Si     0.822550000000     0.217500000000     0.234525000000     0          
O        O      0.750000000000     0.156650000000     0.362650000000     0          
O        O      0.784800000000     0.110850000000     0.385250000000     0          
O        O      0.750000000000     0.141450000000     0.437500000000     0          
O        O      0.534750000000     0.046300000000     0.370375000000     0          
O        O      0.603500000000     0.050650000000     0.380475000000     0          
O        O      0.573950000000     0.000000000000     0.375000000000     0          
O        O      0.578250000000     0.033150000000     0.312500000000     0          
O        O      0.942000000000     0.364850000000     0.312500000000     0          
O        O      0.911350000000     0.394350000000     0.369025000000     0          
O        O      0.903500000000     0.338450000000     0.365975000000     0          
O        O      0.877750000000     0.333450000000     0.437500000000     0          
O        O      0.500000000000     0.449700000000     0.312500000000     0          
T        Si     0.930400000000     0.364550000000     0.358200000000     0          
T        Si     0.868250000000     0.332000000000     0.391250000000     0          
T        Si     0.572550000000     0.032500000000     0.359525000000     0          
T        Si     0.750000000000     0.129950000000     0.392675000000     0          
T        Si     0.500000000000     0.441000000000     0.358450000000     0          
O        O      0.750000000000     0.343350000000     0.487650000000     0          
O        O      0.715200000000     0.389150000000     0.260250000000     0          
O        O      0.750000000000     0.358550000000     0.312500000000     0          
O        O      0.965250000000     0.453700000000     0.495375000000     0          
O        O      0.896500000000     0.449350000000     0.255475000000     0          
O        O      0.926050000000     0.000000000000     0.250000000000     0          
O        O      0.921750000000     0.466850000000     0.437500000000     0          
O        O      0.558000000000     0.135150000000     0.437500000000     0          
O        O      0.588650000000     0.105650000000     0.494025000000     0          
O        O      0.596500000000     0.161550000000     0.490975000000     0          
O        O      0.622250000000     0.166550000000     0.312500000000     0          
O        O      0.500000000000     0.050300000000     0.437500000000     0          
T        Si     0.569600000000     0.135450000000     0.483200000000     0          
T        Si     0.631750000000     0.168000000000     0.266250000000     0          
T        Si     0.927450000000     0.467500000000     0.484525000000     0          
T        Si     0.750000000000     0.370050000000     0.267675000000     0          
T        Si     0.500000000000     0.059000000000     0.483450000000     0          
O        O      0.750000000000     0.343350000000     0.387350000000     0          
O        O      0.784800000000     0.389150000000     0.364750000000     0          
O        O      0.534750000000     0.453700000000     0.379625000000     0          
O        O      0.603500000000     0.449350000000     0.369525000000     0          
O        O      0.578250000000     0.466850000000     0.437500000000     0          
O        O      0.942000000000     0.135150000000     0.437500000000     0          
O        O      0.911350000000     0.105650000000     0.380975000000     0          
O        O      0.903500000000     0.161550000000     0.384025000000     0          
O        O      0.877750000000     0.166550000000     0.312500000000     0          
T        Si     0.930400000000     0.135450000000     0.391800000000     0          
T        Si     0.868250000000     0.168000000000     0.358750000000     0          
T        Si     0.572550000000     0.467500000000     0.390475000000     0          
T        Si     0.750000000000     0.370050000000     0.357325000000     0          
T        Si     0.500000000000     0.059000000000     0.391550000000     0          
O        O      0.750000000000     0.156650000000     0.262350000000     0          
O        O      0.715200000000     0.110850000000     0.489750000000     0          
O        O      0.965250000000     0.046300000000     0.254625000000     0          
O        O      0.896500000000     0.050650000000     0.494525000000     0          
O        O      0.921750000000     0.033150000000     0.312500000000     0          
O        O      0.558000000000     0.364850000000     0.312500000000     0          
O        O      0.588650000000     0.394350000000     0.255975000000     0          
O        O      0.596500000000     0.338450000000     0.259025000000     0          
O        O      0.622250000000     0.333450000000     0.437500000000     0          
T        Si     0.569600000000     0.364550000000     0.266800000000     0          
T        Si     0.631750000000     0.332000000000     0.483750000000     0          
T        Si     0.927450000000     0.032500000000     0.265475000000     0          
T        Si     0.750000000000     0.129950000000     0.482325000000     0          
T        Si     0.500000000000     0.441000000000     0.266550000000     0          
O        O      0.715200000000     0.389150000000     0.364750000000     0          
O        O      0.965250000000     0.453700000000     0.379625000000     0          
O        O      0.896500000000     0.449350000000     0.369525000000     0          
O        O      0.926050000000     0.000000000000     0.375000000000     0          
O        O      0.588650000000     0.105650000000     0.380975000000     0          
O        O      0.596500000000     0.161550000000     0.384025000000     0          
T        Si     0.569600000000     0.135450000000     0.391800000000     0          
T        Si     0.631750000000     0.168000000000     0.358750000000     0          
T        Si     0.927450000000     0.467500000000     0.390475000000     0          
O        O      0.784800000000     0.110850000000     0.489750000000     0          
O        O      0.534750000000     0.046300000000     0.254625000000     0          
O        O      0.603500000000     0.050650000000     0.494525000000     0          
O        O      0.573950000000     0.000000000000     0.250000000000     0          
O        O      0.911350000000     0.394350000000     0.255975000000     0          
O        O      0.903500000000     0.338450000000     0.259025000000     0          
T        Si     0.930400000000     0.364550000000     0.266800000000     0          
T        Si     0.868250000000     0.332000000000     0.483750000000     0          
T        Si     0.572550000000     0.032500000000     0.265475000000     0          
O        O      0.715200000000     0.110850000000     0.385250000000     0          
O        O      0.965250000000     0.046300000000     0.370375000000     0          
O        O      0.896500000000     0.050650000000     0.380475000000     0          
O        O      0.588650000000     0.394350000000     0.369025000000     0          
O        O      0.596500000000     0.338450000000     0.365975000000     0          
T        Si     0.569600000000     0.364550000000     0.358200000000     0          
T        Si     0.631750000000     0.332000000000     0.391250000000     0          
T        Si     0.927450000000     0.032500000000     0.359525000000     0          
O        O      0.784800000000     0.389150000000     0.260250000000     0          
O        O      0.534750000000     0.453700000000     0.495375000000     0          
O        O      0.603500000000     0.449350000000     0.255475000000     0          
O        O      0.911350000000     0.105650000000     0.494025000000     0          
O        O      0.903500000000     0.161550000000     0.490975000000     0          
T        Si     0.930400000000     0.135450000000     0.483200000000     0          
T        Si     0.868250000000     0.168000000000     0.266250000000     0          
T        Si     0.572550000000     0.467500000000     0.484525000000     0          
O        O      0.500000000000     0.406650000000     0.362650000000     0          
O        O      0.534800000000     0.360850000000     0.385250000000     0          
O        O      0.500000000000     0.391450000000     0.437500000000     0          
O        O      0.784750000000     0.296300000000     0.370375000000     0          
O        O      0.853500000000     0.300650000000     0.380475000000     0          
O        O      0.823950000000     0.250000000000     0.375000000000     0          
O        O      0.828250000000     0.283150000000     0.312500000000     0          
O        O      0.692000000000     0.114850000000     0.312500000000     0          
O        O      0.661350000000     0.144350000000     0.369025000000     0          
O        O      0.653500000000     0.088450000000     0.365975000000     0          
O        O      0.627750000000     0.083450000000     0.437500000000     0          
O        O      0.750000000000     0.199700000000     0.312500000000     0          
T        Si     0.680400000000     0.114550000000     0.358200000000     0          
T        Si     0.618250000000     0.082000000000     0.391250000000     0          
T        Si     0.822550000000     0.282500000000     0.359525000000     0          
T        Si     0.500000000000     0.379950000000     0.392675000000     0          
T        Si     0.750000000000     0.191000000000     0.358450000000     0          
O        O      0.500000000000     0.093350000000     0.487650000000     0          
O        O      0.965200000000     0.139150000000     0.260250000000     0          
O        O      0.500000000000     0.108550000000     0.312500000000     0          
O        O      0.715250000000     0.203700000000     0.495375000000     0          
O        O      0.646500000000     0.199350000000     0.255475000000     0          
O        O      0.676050000000     0.250000000000     0.250000000000     0          
O        O      0.671750000000     0.216850000000     0.437500000000     0          
O        O      0.808000000000     0.385150000000     0.437500000000     0          
O        O      0.838650000000     0.355650000000     0.494025000000     0          
O        O      0.846500000000     0.411550000000     0.490975000000     0          
O        O      0.872250000000     0.416550000000     0.312500000000     0          
O        O      0.750000000000     0.300300000000     0.437500000000     0          
T        Si     0.819600000000     0.385450000000     0.483200000000     0          
T        Si     0.881750000000     0.418000000000     0.266250000000     0          
T        Si     0.677450000000     0.217500000000     0.484525000000     0          
T        Si     0.500000000000     0.120050000000     0.267675000000     0          
T        Si     0.750000000000     0.309000000000     0.483450000000     0          
O        O      0.500000000000     0.093350000000     0.387350000000     0          
O        O      0.534800000000     0.139150000000     0.364750000000     0          
O        O      0.784750000000     0.203700000000     0.379625000000     0          
O        O      0.853500000000     0.199350000000     0.369525000000     0          
O        O      0.828250000000     0.216850000000     0.437500000000     0          
O        O      0.692000000000     0.385150000000     0.437500000000     0          
O        O      0.661350000000     0.355650000000     0.380975000000     0          
O        O      0.653500000000     0.411550000000     0.384025000000     0          
O        O      0.627750000000     0.416550000000     0.312500000000     0          
T        Si     0.680400000000     0.385450000000     0.391800000000     0          
T        Si     0.618250000000     0.418000000000     0.358750000000     0          
T        Si     0.822550000000     0.217500000000     0.390475000000     0          
T        Si     0.500000000000     0.120050000000     0.357325000000     0          
T        Si     0.750000000000     0.309000000000     0.391550000000     0          
O        O      0.500000000000     0.406650000000     0.262350000000     0          
O        O      0.965200000000     0.360850000000     0.489750000000     0          
O        O      0.715250000000     0.296300000000     0.254625000000     0          
O        O      0.646500000000     0.300650000000     0.494525000000     0          
O        O      0.671750000000     0.283150000000     0.312500000000     0          
O        O      0.808000000000     0.114850000000     0.312500000000     0          
O        O      0.838650000000     0.144350000000     0.255975000000     0          
O        O      0.846500000000     0.088450000000     0.259025000000     0          
O        O      0.872250000000     0.083450000000     0.437500000000     0          
T        Si     0.819600000000     0.114550000000     0.266800000000     0          
T        Si     0.881750000000     0.082000000000     0.483750000000     0          
T        Si     0.677450000000     0.282500000000     0.265475000000     0          
T        Si     0.500000000000     0.379950000000     0.482325000000     0          
T        Si     0.750000000000     0.191000000000     0.266550000000     0          
O        O      0.965200000000     0.139150000000     0.364750000000     0          
O        O      0.715250000000     0.203700000000     0.379625000000     0          
O        O      0.646500000000     0.199350000000     0.369525000000     0          
O        O      0.676050000000     0.250000000000     0.375000000000     0          
O        O      0.838650000000     0.355650000000     0.380975000000     0          
O        O      0.846500000000     0.411550000000     0.384025000000     0          
T        Si     0.819600000000     0.385450000000     0.391800000000     0          
T        Si     0.881750000000     0.418000000000     0.358750000000     0          
T        Si     0.677450000000     0.217500000000     0.390475000000     0          
O        O      0.534800000000     0.360850000000     0.489750000000     0          
O        O      0.784750000000     0.296300000000     0.254625000000     0          
O        O      0.853500000000     0.300650000000     0.494525000000     0          
O        O      0.823950000000     0.250000000000     0.250000000000     0          
O        O      0.661350000000     0.144350000000     0.255975000000     0          
O        O      0.653500000000     0.088450000000     0.259025000000     0          
T        Si     0.680400000000     0.114550000000     0.266800000000     0          
T        Si     0.618250000000     0.082000000000     0.483750000000     0          
T        Si     0.822550000000     0.282500000000     0.265475000000     0          
O        O      0.965200000000     0.360850000000     0.385250000000     0          
O        O      0.715250000000     0.296300000000     0.370375000000     0          
O        O      0.646500000000     0.300650000000     0.380475000000     0          
O        O      0.838650000000     0.144350000000     0.369025000000     0          
O        O      0.846500000000     0.088450000000     0.365975000000     0          
T        Si     0.819600000000     0.114550000000     0.358200000000     0          
T        Si     0.881750000000     0.082000000000     0.391250000000     0          
T        Si     0.677450000000     0.282500000000     0.359525000000     0          
O        O      0.534800000000     0.139150000000     0.260250000000     0          
O        O      0.784750000000     0.203700000000     0.495375000000     0          
O        O      0.853500000000     0.199350000000     0.255475000000     0          
O        O      0.661350000000     0.355650000000     0.494025000000     0          
O        O      0.653500000000     0.411550000000     0.490975000000     0          
T        Si     0.680400000000     0.385450000000     0.483200000000     0          
T        Si     0.618250000000     0.418000000000     0.266250000000     0          
T        Si     0.822550000000     0.217500000000     0.484525000000     0          
O        O      0.750000000000     0.156650000000     0.612650000000     0          
O        O      0.784800000000     0.110850000000     0.635250000000     0          
O        O      0.750000000000     0.141450000000     0.687500000000     0          
O        O      0.534750000000     0.046300000000     0.620375000000     0          
O        O      0.603500000000     0.050650000000     0.630475000000     0          
O        O      0.573950000000     0.000000000000     0.625000000000     0          
O        O      0.578250000000     0.033150000000     0.562500000000     0          
O        O      0.942000000000     0.364850000000     0.562500000000     0          
O        O      0.911350000000     0.394350000000     0.619025000000     0          
O        O      0.903500000000     0.338450000000     0.615975000000     0          
O        O      0.877750000000     0.333450000000     0.687500000000     0          
O        O      0.500000000000     0.449700000000     0.562500000000     0          
T        Si     0.930400000000     0.364550000000     0.608200000000     0          
T        Si     0.868250000000     0.332000000000     0.641250000000     0          
T        Si     0.572550000000     0.032500000000     0.609525000000     0          
T        Si     0.750000000000     0.129950000000     0.642675000000     0          
T        Si     0.500000000000     0.441000000000     0.608450000000     0          
O        O      0.750000000000     0.343350000000     0.737650000000     0          
O        O      0.715200000000     0.389150000000     0.510250000000     0          
O        O      0.750000000000     0.358550000000     0.562500000000     0          
O        O      0.965250000000     0.453700000000     0.745375000000     0          
O        O      0.896500000000     0.449350000000     0.505475000000     0          
O        O      0.926050000000     0.000000000000     0.500000000000     0          
O        O      0.921750000000     0.466850000000     0.687500000000     0          
O        O      0.558000000000     0.135150000000     0.687500000000     0          
O        O      0.588650000000     0.105650000000     0.744025000000     0          
O        O      0.596500000000     0.161550000000     0.740975000000     0          
O        O      0.622250000000     0.166550000000     0.562500000000     0          
O        O      0.500000000000     0.050300000000     0.687500000000     0          
T        Si     0.569600000000     0.135450000000     0.733200000000     0          
T        Si     0.631750000000     0.168000000000     0.516250000000     0          
T        Si     0.927450000000     0.467500000000     0.734525000000     0          
T        Si     0.750000000000     0.370050000000     0.517675000000     0          
T        Si     0.500000000000     0.059000000000     0.733450000000     0          
O        O      0.750000000000     0.343350000000     0.637350000000     0          
O        O      0.784800000000     0.389150000000     0.614750000000     0          
O        O      0.534750000000     0.453700000000     0.629625000000     0          
O        O      0.603500000000     0.449350000000     0.619525000000     0          
O        O      0.578250000000     0.466850000000     0.687500000000     0          
O        O      0.942000000000     0.135150000000     0.687500000000     0          
O        O      0.911350000000     0.105650000000     0.630975000000     0          
O        O      0.903500000000     0.161550000000     0.634025000000     0          
O        O      0.877750000000     0.166550000000     0.562500000000     0          
T        Si     0.930400000000     0.135450000000     0.641800000000     0          
T        Si     0.868250000000     0.168000000000     0.608750000000     0          
T        Si     0.572550000000     0.467500000000     0.640475000000     0          
T        Si     0.750000000000     0.370050000000     0.607325000000     0          
T        Si     0.500000000000     0.059000000000     0.641550000000     0          
O        O      0.750000000000     0.156650000000     0.512350000000     0          
O        O      0.715200000000     0.110850000000     0.739750000000     0          
O        O      0.965250000000     0.046300000000     0.504625000000     0          
O        O      0.896500000000     0.050650000000     0.744525000000     0          
O        O      0.921750000000     0.033150000000     0.562500000000     0          
O        O      0.558000000000     0.364850000000     0.562500000000     0          
O        O      0.588650000000     0.394350000000     0.505975000000     0          
O        O      0.596500000000     0.338450000000     0.509025000000     0          
O        O      0.622250000000     0.333450000000     0.687500000000     0          
T        Si     0.569600000000     0.364550000000     0.516800000000     0          
T        Si     0.631750000000     0.332000000000     0.733750000000     0          
T        Si     0.927450000000     0.032500000000     0.515475000000     0          
T        Si     0.750000000000     0.129950000000     0.732325000000     0          
T        Si     0.500000000000     0.441000000000     0.516550000000     0          
O        O      0.715200000000     0.389150000000     0.614750000000     0          
O        O      0.965250000000     0.453700000000     0.629625000000     0          
O        O      0.896500000000     0.449350000000     0.619525000000     0          
O        O      0.926050000000     0.000000000000     0.625000000000     0          
O        O      0.588650000000     0.105650000000     0.630975000000     0          
O        O      0.596500000000     0.161550000000     0.634025000000     0          
T        Si     0.569600000000     0.135450000000     0.641800000000     0          
T        Si     0.631750000000     0.168000000000     0.608750000000     0          
T        Si     0.927450000000     0.467500000000     0.640475000000     0          
O        O      0.784800000000     0.110850000000     0.739750000000     0          
O        O      0.534750000000     0.046300000000     0.504625000000     0          
O        O      0.603500000000     0.050650000000     0.744525000000     0          
O        O      0.573950000000     0.000000000000     0.500000000000     0          
O        O      0.911350000000     0.394350000000     0.505975000000     0          
O        O      0.903500000000     0.338450000000     0.509025000000     0          
T        Si     0.930400000000     0.364550000000     0.516800000000     0          
T        Si     0.868250000000     0.332000000000     0.733750000000     0          
T        Si     0.572550000000     0.032500000000     0.515475000000     0          
O        O      0.715200000000     0.110850000000     0.635250000000     0          
O        O      0.965250000000     0.046300000000     0.620375000000     0          
O        O      0.896500000000     0.050650000000     0.630475000000     0          
O        O      0.588650000000     0.394350000000     0.619025000000     0          
O        O      0.596500000000     0.338450000000     0.615975000000     0          
T        Si     0.569600000000     0.364550000000     0.608200000000     0          
T        Si     0.631750000000     0.332000000000     0.641250000000     0          
T        Si     0.927450000000     0.032500000000     0.609525000000     0          
O        O      0.784800000000     0.389150000000     0.510250000000     0          
O        O      0.534750000000     0.453700000000     0.745375000000     0          
O        O      0.603500000000     0.449350000000     0.505475000000     0          
O        O      0.911350000000     0.105650000000     0.744025000000     0          
O        O      0.903500000000     0.161550000000     0.740975000000     0          
T        Si     0.930400000000     0.135450000000     0.733200000000     0          
T        Si     0.868250000000     0.168000000000     0.516250000000     0          
T        Si     0.572550000000     0.467500000000     0.734525000000     0          
O        O      0.500000000000     0.406650000000     0.612650000000     0          
O        O      0.534800000000     0.360850000000     0.635250000000     0          
O        O      0.500000000000     0.391450000000     0.687500000000     0          
O        O      0.784750000000     0.296300000000     0.620375000000     0          
O        O      0.853500000000     0.300650000000     0.630475000000     0          
O        O      0.823950000000     0.250000000000     0.625000000000     0          
O        O      0.828250000000     0.283150000000     0.562500000000     0          
O        O      0.692000000000     0.114850000000     0.562500000000     0          
O        O      0.661350000000     0.144350000000     0.619025000000     0          
O        O      0.653500000000     0.088450000000     0.615975000000     0          
O        O      0.627750000000     0.083450000000     0.687500000000     0          
O        O      0.750000000000     0.199700000000     0.562500000000     0          
T        Si     0.680400000000     0.114550000000     0.608200000000     0          
T        Si     0.618250000000     0.082000000000     0.641250000000     0          
T        Si     0.822550000000     0.282500000000     0.609525000000     0          
T        Si     0.500000000000     0.379950000000     0.642675000000     0          
T        Si     0.750000000000     0.191000000000     0.608450000000     0          
O        O      0.500000000000     0.093350000000     0.737650000000     0          
O        O      0.965200000000     0.139150000000     0.510250000000     0          
O        O      0.500000000000     0.108550000000     0.562500000000     0          
O        O      0.715250000000     0.203700000000     0.745375000000     0          
O        O      0.646500000000     0.199350000000     0.505475000000     0          
O        O      0.676050000000     0.250000000000     0.500000000000     0          
O        O      0.671750000000     0.216850000000     0.687500000000     0          
O        O      0.808000000000     0.385150000000     0.687500000000     0          
O        O      0.838650000000     0.355650000000     0.744025000000     0          
O        O      0.846500000000     0.411550000000     0.740975000000     0          
O        O      0.872250000000     0.416550000000     0.562500000000     0          
O        O      0.750000000000     0.300300000000     0.687500000000     0          
T        Si     0.819600000000     0.385450000000     0.733200000000     0          
T        Si     0.881750000000     0.418000000000     0.516250000000     0          
T        Si     0.677450000000     0.217500000000     0.734525000000     0          
T        Si     0.500000000000     0.120050000000     0.517675000000     0          
T        Si     0.750000000000     0.309000000000     0.733450000000     0          
O        O      0.500000000000     0.093350000000     0.637350000000     0          
O        O      0.534800000000     0.139150000000     0.614750000000     0          
O        O      0.784750000000     0.203700000000     0.629625000000     0          
O        O      0.853500000000     0.199350000000     0.619525000000     0          
O        O      0.828250000000     0.216850000000     0.687500000000     0          
O        O      0.692000000000     0.385150000000     0.687500000000     0          
O        O      0.661350000000     0.355650000000     0.630975000000     0          
O        O      0.653500000000     0.411550000000     0.634025000000     0          
O        O      0.627750000000     0.416550000000     0.562500000000     0          
T        Si     0.680400000000     0.385450000000     0.641800000000     0          
T        Si     0.618250000000     0.418000000000     0.608750000000     0          
T        Si     0.822550000000     0.217500000000     0.640475000000     0          
T        Si     0.500000000000     0.120050000000     0.607325000000     0          
T        Si     0.750000000000     0.309000000000     0.641550000000     0          
O        O      0.500000000000     0.406650000000     0.512350000000     0          
O        O      0.965200000000     0.360850000000     0.739750000000     0          
O        O      0.715250000000     0.296300000000     0.504625000000     0          
O        O      0.646500000000     0.300650000000     0.744525000000     0          
O        O      0.671750000000     0.283150000000     0.562500000000     0          
O        O      0.808000000000     0.114850000000     0.562500000000     0          
O        O      0.838650000000     0.144350000000     0.505975000000     0          
O        O      0.846500000000     0.088450000000     0.509025000000     0          
O        O      0.872250000000     0.083450000000     0.687500000000     0          
T        Si     0.819600000000     0.114550000000     0.516800000000     0          
T        Si     0.881750000000     0.082000000000     0.733750000000     0          
T        Si     0.677450000000     0.282500000000     0.515475000000     0          
T        Si     0.500000000000     0.379950000000     0.732325000000     0          
T        Si     0.750000000000     0.191000000000     0.516550000000     0          
O        O      0.965200000000     0.139150000000     0.614750000000     0          
O        O      0.715250000000     0.203700000000     0.629625000000     0          
O        O      0.646500000000     0.199350000000     0.619525000000     0          
O        O      0.676050000000     0.250000000000     0.625000000000     0          
O        O      0.838650000000     0.355650000000     0.630975000000     0          
O        O      0.846500000000     0.411550000000     0.634025000000     0          
T        Si     0.819600000000     0.385450000000     0.641800000000     0          
T        Si     0.881750000000     0.418000000000     0.608750000000     0          
T        Si     0.677450000000     0.217500000000     0.640475000000     0          
O        O      0.534800000000     0.360850000000     0.739750000000     0          
O        O      0.784750000000     0.296300000000     0.504625000000     0          
O        O      0.853500000000     0.300650000000     0.744525000000     0          
O        O      0.823950000000     0.250000000000     0.500000000000     0          
O        O      0.661350000000     0.144350000000     0.505975000000     0          
O        O      0.653500000000     0.088450000000     0.509025000000     0          
T        Si     0.680400000000     0.114550000000     0.516800000000     0          
T        Si     0.618250000000     0.082000000000     0.733750000000     0          
T        Si     0.822550000000     0.282500000000     0.515475000000     0          
O        O      0.965200000000     0.360850000000     0.635250000000     0          
O        O      0.715250000000     0.296300000000     0.620375000000     0          
O        O      0.646500000000     0.300650000000     0.630475000000     0          
O        O      0.838650000000     0.144350000000     0.619025000000     0          
O        O      0.846500000000     0.088450000000     0.615975000000     0          
T        Si     0.819600000000     0.114550000000     0.608200000000     0          
T        Si     0.881750000000     0.082000000000     0.641250000000     0          
T        Si     0.677450000000     0.282500000000     0.609525000000     0          
O        O      0.534800000000     0.139150000000     0.510250000000     0          
O        O      0.784750000000     0.203700000000     0.745375000000     0          
O        O      0.853500000000     0.199350000000     0.505475000000     0          
O        O      0.661350000000     0.355650000000     0.744025000000     0          
O        O      0.653500000000     0.411550000000     0.740975000000     0          
T        Si     0.680400000000     0.385450000000     0.733200000000     0          
T        Si     0.618250000000     0.418000000000     0.516250000000     0          
T        Si     0.822550000000     0.217500000000     0.734525000000     0          
O        O      0.750000000000     0.156650000000     0.862650000000     0          
O        O      0.784800000000     0.110850000000     0.885250000000     0          
O        O      0.750000000000     0.141450000000     0.937500000000     0          
O        O      0.534750000000     0.046300000000     0.870375000000     0          
O        O      0.603500000000     0.050650000000     0.880475000000     0          
O        O      0.573950000000     0.000000000000     0.875000000000     0          
O        O      0.578250000000     0.033150000000     0.812500000000     0          
O        O      0.942000000000     0.364850000000     0.812500000000     0          
O        O      0.911350000000     0.394350000000     0.869025000000     0          
O        O      0.903500000000     0.338450000000     0.865975000000     0          
O        O      0.877750000000     0.333450000000     0.937500000000     0          
O        O      0.500000000000     0.449700000000     0.812500000000     0          
T        Si     0.930400000000     0.364550000000     0.858200000000     0          
T        Si     0.868250000000     0.332000000000     0.891250000000     0          
T        Si     0.572550000000     0.032500000000     0.859525000000     0          
T        Si     0.750000000000     0.129950000000     0.892675000000     0          
T        Si     0.500000000000     0.441000000000     0.858450000000     0          
O        O      0.750000000000     0.343350000000     0.987650000000     0          
O        O      0.715200000000     0.389150000000     0.760250000000     0          
O        O      0.750000000000     0.358550000000     0.812500000000     0          
O        O      0.965250000000     0.453700000000     0.995375000000     0          
O        O      0.896500000000     0.449350000000     0.755475000000     0          
O        O      0.926050000000     0.000000000000     0.750000000000     0          
O        O      0.921750000000     0.466850000000     0.937500000000     0          
O        O      0.558000000000     0.135150000000     0.937500000000     0          
O        O      0.588650000000     0.105650000000     0.994025000000     0          
O        O      0.596500000000     0.161550000000     0.990975000000     0          
O        O      0.622250000000     0.166550000000     0.812500000000     0          
O        O      0.500000000000     0.050300000000     0.937500000000     0          
T        Si     0.569600000000     0.135450000000     0.983200000000     0          
T        Si     0.631750000000     0.168000000000     0.766250000000     0          
T        Si     0.927450000000     0.467500000000     0.984525000000     0          
T        Si     0.750000000000     0.370050000000     0.767675000000     0          
T        Si     0.500000000000     0.059000000000     0.983450000000     0          
O        O      0.750000000000     0.343350000000     0.887350000000     0          
O        O      0.784800000000     0.389150000000     0.864750000000     0          
O        O      0.534750000000     0.453700000000     0.879625000000     0          
O        O      0.603500000000     0.449350000000     0.869525000000     0          
O        O      0.578250000000     0.466850000000     0.937500000000     0          
O        O      0.942000000000     0.135150000000     0.937500000000     0          
O        O      0.911350000000     0.105650000000     0.880975000000     0          
O        O      0.903500000000     0.161550000000     0.884025000000     0          
O        O      0.877750000000     0.166550000000     0.812500000000     0          
T        Si     0.930400000000     0.135450000000     0.891800000000     0          
T        Si     0.868250000000     0.168000000000     0.858750000000     0          
T        Si     0.572550000000     0.467500000000     0.890475000000     0          
T        Si     0.750000000000     0.370050000000     0.857325000000     0          
T        Si     0.500000000000     0.059000000000     0.891550000000     0          
O        O      0.750000000000     0.156650000000     0.762350000000     0          
O        O      0.715200000000     0.110850000000     0.989750000000     0          
O        O      0.965250000000     0.046300000000     0.754625000000     0          
O        O      0.896500000000     0.050650000000     0.994525000000     0          
O        O      0.921750000000     0.033150000000     0.812500000000     0          
O        O      0.558000000000     0.364850000000     0.812500000000     0          
O        O      0.588650000000     0.394350000000     0.755975000000     0          
O        O      0.596500000000     0.338450000000     0.759025000000     0          
O        O      0.622250000000     0.333450000000     0.937500000000     0          
T        Si     0.569600000000     0.364550000000     0.766800000000     0          
T        Si     0.631750000000     0.332000000000     0.983750000000     0          
T        Si     0.927450000000     0.032500000000     0.765475000000     0          
T        Si     0.750000000000     0.129950000000     0.982325000000     0          
T        Si     0.500000000000     0.441000000000     0.766550000000     0          
O        O      0.715200000000     0.389150000000     0.864750000000     0          
O        O      0.965250000000     0.453700000000     0.879625000000     0          
O        O      0.896500000000     0.449350000000     0.869525000000     0          
O        O      0.926050000000     0.000000000000     0.875000000000     0          
O        O      0.588650000000     0.105650000000     0.880975000000     0          
O        O      0.596500000000     0.161550000000     0.884025000000     0          
T        Si     0.569600000000     0.135450000000     0.891800000000     0          
T        Si     0.631750000000     0.168000000000     0.858750000000     0          
T        Si     0.927450000000     0.467500000000     0.890475000000     0          
O        O      0.784800000000     0.110850000000     0.989750000000     0          
O        O      0.534750000000     0.046300000000     0.754625000000     0          
O        O      0.603500000000     0.050650000000     0.994525000000     0          
O        O      0.573950000000     0.000000000000     0.750000000000     0          
O        O      0.911350000000     0.394350000000     0.755975000000     0          
O        O      0.903500000000     0.338450000000     0.759025000000     0          
T        Si     0.930400000000     0.364550000000     0.766800000000     0          
T        Si     0.868250000000     0.332000000000     0.983750000000     0          
T        Si     0.572550000000     0.032500000000     0.765475000000     0          
O        O      0.715200000000     0.110850000000     0.885250000000     0          
O        O      0.965250000000     0.046300000000     0.870375000000     0          
O        O      0.896500000000     0.050650000000     0.880475000000     0          
O        O      0.588650000000     0.394350000000     0.869025000000     0          
O        O      0.596500000000     0.338450000000     0.865975000000     0          
T        Si     0.569600000000     0.364550000000     0.858200000000     0          
T        Si     0.631750000000     0.332000000000     0.891250000000     0          
T        Si     0.927450000000     0.032500000000     0.859525000000     0          
O        O      0.784800000000     0.389150000000     0.760250000000     0          
O        O      0.534750000000     0.453700000000     0.995375000000     0          
O        O      0.603500000000     0.449350000000     0.755475000000     0          
O        O      0.911350000000     0.105650000000     0.994025000000     0          
O        O      0.903500000000     0.161550000000     0.990975000000     0          
T        Si     0.930400000000     0.135450000000     0.983200000000     0          
T        Si     0.868250000000     0.168000000000     0.766250000000     0          
T        Si     0.572550000000     0.467500000000     0.984525000000     0          
O        O      0.500000000000     0.406650000000     0.862650000000     0          
O        O      0.534800000000     0.360850000000     0.885250000000     0          
O        O      0.500000000000     0.391450000000     0.937500000000     0          
O        O      0.784750000000     0.296300000000     0.870375000000     0          
O        O      0.853500000000     0.300650000000     0.880475000000     0          
O        O      0.823950000000     0.250000000000     0.875000000000     0          
O        O      0.828250000000     0.283150000000     0.812500000000     0          
O        O      0.692000000000     0.114850000000     0.812500000000     0          
O        O      0.661350000000     0.144350000000     0.869025000000     0          
O        O      0.653500000000     0.088450000000     0.865975000000     0          
O        O      0.627750000000     0.083450000000     0.937500000000     0          
O        O      0.750000000000     0.199700000000     0.812500000000     0          
T        Si     0.680400000000     0.114550000000     0.858200000000     0          
T        Si     0.618250000000     0.082000000000     0.891250000000     0          
T        Si     0.822550000000     0.282500000000     0.859525000000     0          
T        Si     0.500000000000     0.379950000000     0.892675000000     0          
T        Si     0.750000000000     0.191000000000     0.858450000000     0          
O        O      0.500000000000     0.093350000000     0.987650000000     0          
O        O      0.965200000000     0.139150000000     0.760250000000     0          
O        O      0.500000000000     0.108550000000     0.812500000000     0          
O        O      0.715250000000     0.203700000000     0.995375000000     0          
O        O      0.646500000000     0.199350000000     0.755475000000     0          
O        O      0.676050000000     0.250000000000     0.750000000000     0          
O        O      0.671750000000     0.216850000000     0.937500000000     0          
O        O      0.808000000000     0.385150000000     0.937500000000     0          
O        O      0.838650000000     0.355650000000     0.994025000000     0          
O        O      0.846500000000     0.411550000000     0.990975000000     0          
O        O      0.872250000000     0.416550000000     0.812500000000     0          
O        O      0.750000000000     0.300300000000     0.937500000000     0          
T        Si     0.819600000000     0.385450000000     0.983200000000     0          
T        Si     0.881750000000     0.418000000000     0.766250000000     0          
T        Si     0.677450000000     0.217500000000     0.984525000000     0          
T        Si     0.500000000000     0.120050000000     0.767675000000     0          
T        Si     0.750000000000     0.309000000000     0.983450000000     0          
O        O      0.500000000000     0.093350000000     0.887350000000     0          
O        O      0.534800000000     0.139150000000     0.864750000000     0          
O        O      0.784750000000     0.203700000000     0.879625000000     0          
O        O      0.853500000000     0.199350000000     0.869525000000     0          
O        O      0.828250000000     0.216850000000     0.937500000000     0          
O        O      0.692000000000     0.385150000000     0.937500000000     0          
O        O      0.661350000000     0.355650000000     0.880975000000     0          
O        O      0.653500000000     0.411550000000     0.884025000000     0          
O        O      0.627750000000     0.416550000000     0.812500000000     0          
T        Si     0.680400000000     0.385450000000     0.891800000000     0          
T        Si     0.618250000000     0.418000000000     0.858750000000     0          
T        Si     0.822550000000     0.217500000000     0.890475000000     0          
T        Si     0.500000000000     0.120050000000     0.857325000000     0          
T        Si     0.750000000000     0.309000000000     0.891550000000     0          
O        O      0.500000000000     0.406650000000     0.762350000000     0          
O        O      0.965200000000     0.360850000000     0.989750000000     0          
O        O      0.715250000000     0.296300000000     0.754625000000     0          
O        O      0.646500000000     0.300650000000     0.994525000000     0          
O        O      0.671750000000     0.283150000000     0.812500000000     0          
O        O      0.808000000000     0.114850000000     0.812500000000     0          
O        O      0.838650000000     0.144350000000     0.755975000000     0          
O        O      0.846500000000     0.088450000000     0.759025000000     0          
O        O      0.872250000000     0.083450000000     0.937500000000     0          
T        Si     0.819600000000     0.114550000000     0.766800000000     0          
T        Si     0.881750000000     0.082000000000     0.983750000000     0          
T        Si     0.677450000000     0.282500000000     0.765475000000     0          
T        Si     0.500000000000     0.379950000000     0.982325000000     0          
T        Si     0.750000000000     0.191000000000     0.766550000000     0          
O        O      0.965200000000     0.139150000000     0.864750000000     0          
O        O      0.715250000000     0.203700000000     0.879625000000     0          
O        O      0.646500000000     0.199350000000     0.869525000000     0          
O        O      0.676050000000     0.250000000000     0.875000000000     0          
O        O      0.838650000000     0.355650000000     0.880975000000     0          
O        O      0.846500000000     0.411550000000     0.884025000000     0          
T        Si     0.819600000000     0.385450000000     0.891800000000     0          
T        Si     0.881750000000     0.418000000000     0.858750000000     0          
T        Si     0.677450000000     0.217500000000     0.890475000000     0          
O        O      0.534800000000     0.360850000000     0.989750000000     0          
O        O      0.784750000000     0.296300000000     0.754625000000     0          
O        O      0.853500000000     0.300650000000     0.994525000000     0          
O        O      0.823950000000     0.250000000000     0.750000000000     0          
O        O      0.661350000000     0.144350000000     0.755975000000     0          
O        O      0.653500000000     0.088450000000     0.759025000000     0          
T        Si     0.680400000000     0.114550000000     0.766800000000     0          
T        Si     0.618250000000     0.082000000000     0.983750000000     0          
T        Si     0.822550000000     0.282500000000     0.765475000000     0          
O        O      0.965200000000     0.360850000000     0.885250000000     0          
O        O      0.715250000000     0.296300000000     0.870375000000     0          
O        O      0.646500000000     0.300650000000     0.880475000000     0          
O        O      0.838650000000     0.144350000000     0.869025000000     0          
O        O      0.846500000000     0.088450000000     0.865975000000     0          
T        Si     0.819600000000     0.114550000000     0.858200000000     0          
T        Si     0.881750000000     0.082000000000     0.891250000000     0          
T        Si     0.677450000000     0.282500000000     0.859525000000     0          
O        O      0.534800000000     0.139150000000     0.760250000000     0          
O        O      0.784750000000     0.203700000000     0.995375000000     0          
O        O      0.853500000000     0.199350000000     0.755475000000     0          
O        O      0.661350000000     0.355650000000     0.994025000000     0          
O        O      0.653500000000     0.411550000000     0.990975000000     0          
T        Si     0.680400000000     0.385450000000     0.983200000000     0          
T        Si     0.618250000000     0.418000000000     0.766250000000     0          
T        Si     0.822550000000     0.217500000000     0.984525000000     0          
O        O      0.750000000000     0.656650000000     0.112650000000     0          
O        O      0.784800000000     0.610850000000     0.135250000000     0          
O        O      0.750000000000     0.641450000000     0.187500000000     0          
O        O      0.534750000000     0.546300000000     0.120375000000     0          
O        O      0.603500000000     0.550650000000     0.130475000000     0          
O        O      0.573950000000     0.500000000000     0.125000000000     0          
O        O      0.578250000000     0.533150000000     0.062500000000     0          
O        O      0.942000000000     0.864850000000     0.062500000000     0          
O        O      0.911350000000     0.894350000000     0.119025000000     0          
O        O      0.903500000000     0.838450000000     0.115975000000     0          
O        O      0.877750000000     0.833450000000     0.187500000000     0          
O        O      0.500000000000     0.949700000000     0.062500000000     0          
T        Si     0.930400000000     0.864550000000     0.108200000000     0          
T        Si     0.868250000000     0.832000000000     0.141250000000     0          
T        Si     0.572550000000     0.532500000000     0.109525000000     0          
T        Si     0.750000000000     0.629950000000     0.142675000000     0          
T        Si     0.500000000000     0.941000000000     0.108450000000     0          
O        O      0.750000000000     0.843350000000     0.237650000000     0          
O        O      0.715200000000     0.889150000000     0.010250000000     0          
O        O      0.750000000000     0.858550000000     0.062500000000     0          
O        O      0.965250000000     0.953700000000     0.245375000000     0          
O        O      0.896500000000     0.949350000000     0.005475000000     0          
O        O      0.926050000000     0.500000000000     0.000000000000     0          
O        O      0.921750000000     0.966850000000     0.187500000000     0          
O        O      0.558000000000     0.635150000000     0.187500000000     0          
O        O      0.588650000000     0.605650000000     0.244025000000     0          
O        O      0.596500000000     0.661550000000     0.240975000000     0          
O        O      0.622250000000     0.666550000000     0.062500000000     0          
O        O      0.500000000000     0.550300000000     0.187500000000     0          
T        Si     0.569600000000     0.635450000000     0.233200000000     0          
T        Si     0.631750000000     0.668000000000     0.016250000000     0          
T        Si     0.927450000000     0.967500000000     0.234525000000     0          
T        Si     0.750000000000     0.870050000000     0.017675000000     0          
T        Si     0.500000000000     0.559000000000     0.233450000000     0          
O        O      0.750000000000     0.843350000000     0.137350000000     0          
O        O      0.784800000000     0.889150000000     0.114750000000     0          
O        O      0.534750000000     0.953700000000     0.129625000000     0          
O        O      0.603500000000     0.949350000000     0.119525000000     0          
O        O      0.578250000000     0.966850000000     0.187500000000     0          
O        O      0.942000000000     0.635150000000     0.187500000000     0          
O        O      0.911350000000     0.605650000000     0.130975000000     0          
O        O      0.903500000000     0.661550000000     0.134025000000     0          
O        O      0.877750000000     0.666550000000     0.062500000000     0          
T        Si     0.930400000000     0.635450000000     0.141800000000     0          
T        Si     0.868250000000     0.668000000000     0.108750000000     0          
T        Si     0.572550000000     0.967500000000     0.140475000000     0          
T        Si     0.750000000000     0.870050000000     0.107325000000     0          
T        Si     0.500000000000     0.559000000000     0.141550000000     0          
O        O      0.750000000000     0.656650000000     0.012350000000     0          
O        O      0.715200000000     0.610850000000     0.239750000000     0          
O        O      0.965250000000     0.546300000000     0.004625000000     0          
O        O      0.896500000000     0.550650000000     0.244525000000     0          
O        O      0.921750000000     0.533150000000     0.062500000000     0          
O        O      0.558000000000     0.864850000000     0.062500000000     0          
O        O      0.588650000000     0.894350000000     0.005975000000     0          
O        O      0.596500000000     0.838450000000     0.009025000000     0          
O        O      0.622250000000     0.833450000000     0.187500000000     0          
T        Si     0.569600000000     0.864550000000     0.016800000000     0          
T        Si     0.631750000000     0.832000000000     0.233750000000     0          
T        Si     0.927450000000     0.532500000000     0.015475000000     0          
T        Si     0.750000000000     0.629950000000     0.232325000000     0          
T        Si     0.500000000000     0.941000000000     0.016550000000     0          
O        O      0.715200000000     0.889150000000     0.114750000000     0          
O        O      0.965250000000     0.953700000000     0.129625000000     0          
O        O      0.896500000000     0.949350000000     0.119525000000     0          
O        O      0.926050000000     0.500000000000     0.125000000000     0          
O        O      0.588650000000     0.605650000000     0.130975000000     0          
O        O      0.596500000000     0.661550000000     0.134025000000     0          
T        Si     0.569600000000     0.635450000000     0.141800000000     0          
T        Si     0.631750000000     0.668000000000     0.108750000000     0          
T        Si     0.927450000000     0.967500000000     0.140475000000     0          
O        O      0.784800000000     0.610850000000     0.239750000000     0          
O        O      0.534750000000     0.546300000000     0.004625000000     0          
O        O      0.603500000000     0.550650000000     0.244525000000     0          
O        O      0.573950000000     0.500000000000     0.000000000000     0          
O        O      0.911350000000     0.894350000000     0.005975000000     0          
O        O      0.903500000000     0.838450000000     0.009025000000     0          
T        Si     0.930400000000     0.864550000000     0.016800000000     0          
T        Si     0.868250000000     0.832000000000     0.233750000000     0          
T        Si     0.572550000000     0.532500000000     0.015475000000     0          
O        O      0.715200000000     0.610850000000     0.135250000000     0          
O        O      0.965250000000     0.546300000000     0.120375000000     0          
O        O      0.896500000000     0.550650000000     0.130475000000     0          
O        O      0.588650000000     0.894350000000     0.119025000000     0          
O        O      0.596500000000     0.838450000000     0.115975000000     0          
T        Si     0.569600000000     0.864550000000     0.108200000000     0          
T        Si     0.631750000000     0.832000000000     0.141250000000     0          
T        Si     0.927450000000     0.532500000000     0.109525000000     0          
O        O      0.784800000000     0.889150000000     0.010250000000     0          
O        O      0.534750000000     0.953700000000     0.245375000000     0          
O        O      0.603500000000     0.949350000000     0.005475000000     0          
O        O      0.911350000000     0.605650000000     0.244025000000     0          
O        O      0.903500000000     0.661550000000     0.240975000000     0          
T        Si     0.930400000000     0.635450000000     0.233200000000     0          
T        Si     0.868250000000     0.668000000000     0.016250000000     0          
T        Si     0.572550000000     0.967500000000     0.234525000000     0          
O        O      0.500000000000     0.906650000000     0.112650000000     0          
O        O      0.534800000000     0.860850000000     0.135250000000     0          
O        O      0.500000000000     0.891450000000     0.187500000000     0          
O        O      0.784750000000     0.796300000000     0.120375000000     0          
O        O      0.853500000000     0.800650000000     0.130475000000     0          
O        O      0.823950000000     0.750000000000     0.125000000000     0          
O        O      0.828250000000     0.783150000000     0.062500000000     0          
O        O      0.692000000000     0.614850000000     0.062500000000     0          
O        O      0.661350000000     0.644350000000     0.119025000000     0          
O        O      0.653500000000     0.588450000000     0.115975000000     0          
O        O      0.627750000000     0.583450000000     0.187500000000     0          
O        O      0.750000000000     0.699700000000     0.062500000000     0          
T        Si     0.680400000000     0.614550000000     0.108200000000     0          
T        Si     0.618250000000     0.582000000000     0.141250000000     0          
T        Si     0.822550000000     0.782500000000     0.109525000000     0          
T        Si     0.500000000000     0.879950000000     0.142675000000     0          
T        Si     0.750000000000     0.691000000000     0.108450000000     0          
O        O      0.500000000000     0.593350000000     0.237650000000     0          
O        O      0.965200000000     0.639150000000     0.010250000000     0          
O        O      0.500000000000     0.608550000000     0.062500000000     0          
O        O      0.715250000000     0.703700000000     0.245375000000     0          
O        O      0.646500000000     0.699350000000     0.005475000000     0          
O        O      0.676050000000     0.750000000000     0.000000000000     0          
O        O      0.671750000000     0.716850000000     0.187500000000     0          
O        O      0.808000000000     0.885150000000     0.187500000000     0          
O        O      0.838650000000     0.855650000000     0.244025000000     0          
O        O      0.846500000000     0.911550000000     0.240975000000     0          
O        O      0.872250000000     0.916550000000     0.062500000000     0          
O        O      0.750000000000     0.800300000000     0.187500000000     0          
T        Si     0.819600000000     0.885450000000     0.233200000000     0          
T        Si     0.881750000000     0.918000000000     0.016250000000     0          
T        Si     0.677450000000     0.717500000000     0.234525000000     0          
T        Si     0.500000000000     0.620050000000     0.017675000000     0          
T        Si     0.750000000000     0.809000000000     0.233450000000     0          
O        O      0.500000000000     0.593350000000     0.137350000000     0          
O        O      0.534800000000     0.639150000000     0.114750000000     0          
O        O      0.784750000000     0.703700000000     0.129625000000     0          
O        O      0.853500000000     0.699350000000     0.119525000000     0          
O        O      0.828250000000     0.716850000000     0.187500000000     0          
O        O      0.692000000000     0.885150000000     0.187500000000     0          
O        O      0.661350000000     0.855650000000     0.130975000000     0          
O        O      0.653500000000     0.911550000000     0.134025000000     0          
O        O      0.627750000000     0.916550000000     0.062500000000     0          
T        Si     0.680400000000     0.885450000000     0.141800000000     0          
T        Si     0.618250000000     0.918000000000     0.108750000000     0          
T        Si     0.822550000000     0.717500000000     0.140475000000     0          
T        Si     0.500000000000     0.620050000000     0.107325000000     0          
T        Si     0.750000000000     0.809000000000     0.141550000000     0          
O        O      0.500000000000     0.906650000000     0.012350000000     0          
O        O      0.965200000000     0.860850000000     0.239750000000     0          
O        O      0.715250000000     0.796300000000     0.004625000000     0          
O        O      0.646500000000     0.800650000000     0.244525000000     0          
O        O      0.671750000000     0.783150000000     0.062500000000     0          
O        O      0.808000000000     0.614850000000     0.062500000000     0          
O        O      0.838650000000     0.644350000000     0.005975000000     0          
O        O      0.846500000000     0.588450000000     0.009025000000     0          
O        O      0.872250000000     0.583450000000     0.187500000000     0          
T        Si     0.819600000000     0.614550000000     0.016800000000     0          
T        Si     0.881750000000     0.582000000000     0.233750000000     0          
T        Si     0.677450000000     0.782500000000     0.015475000000     0          
T        Si     0.500000000000     0.879950000000     0.232325000000     0          
T        Si     0.750000000000     0.691000000000     0.016550000000     0          
O        O      0.965200000000     0.639150000000     0.114750000000     0          
O        O      0.715250000000     0.703700000000     0.129625000000     0          
O        O      0.646500000000     0.699350000000     0.119525000000     0          
O        O      0.676050000000     0.750000000000     0.125000000000     0          
O        O      0.838650000000     0.855650000000     0.130975000000     0          
O        O      0.846500000000     0.911550000000     0.134025000000     0          
T        Si     0.819600000000     0.885450000000     0.141800000000     0          
T        Si     0.881750000000     0.918000000000     0.108750000000     0          
T        Si     0.677450000000     0.717500000000     0.140475000000     0          
O        O      0.534800000000     0.860850000000     0.239750000000     0          
O        O      0.784750000000     0.796300000000     0.004625000000     0          
O        O      0.853500000000     0.800650000000     0.244525000000     0          
O        O      0.823950000000     0.750000000000     0.000000000000     0          
O        O      0.661350000000     0.644350000000     0.005975000000     0          
O        O      0.653500000000     0.588450000000     0.009025000000     0          
T        Si     0.680400000000     0.614550000000     0.016800000000     0          
T        Si     0.618250000000     0.582000000000     0.233750000000     0          
T        Si     0.822550000000     0.782500000000     0.015475000000     0          
O        O      0.965200000000     0.860850000000     0.135250000000     0          
O        O      0.715250000000     0.796300000000     0.120375000000     0          
O        O      0.646500000000     0.800650000000     0.130475000000     0          
O        O      0.838650000000     0.644350000000     0.119025000000     0          
O        O      0.846500000000     0.588450000000     0.115975000000     0          
T        Si     0.819600000000     0.614550000000     0.108200000000     0          
T        Si     0.881750000000     0.582000000000     0.141250000000     0          
T        Si     0.677450000000     0.782500000000     0.109525000000     0          
O        O      0.534800000000     0.639150000000     0.010250000000     0          
O        O      0.784750000000     0.703700000000     0.245375000000     0          
O        O      0.853500000000     0.699350000000     0.005475000000     0          
O        O      0.661350000000     0.855650000000     0.244025000000     0          
O        O      0.653500000000     0.911550000000     0.240975000000     0          
T        Si     0.680400000000     0.885450000000     0.233200000000     0          
T        Si     0.618250000000     0.918000000000     0.016250000000     0          
T        Si     0.822550000000     0.717500000000     0.234525000000     0          
O        O      0.750000000000     0.656650000000     0.362650000000     0          
O        O      0.784800000000     0.610850000000     0.385250000000     0          
O        O      0.750000000000     0.641450000000     0.437500000000     0          
O        O      0.534750000000     0.546300000000     0.370375000000     0          
O        O      0.603500000000     0.550650000000     0.380475000000     0          
O        O      0.573950000000     0.500000000000     0.375000000000     0          
O        O      0.578250000000     0.533150000000     0.312500000000     0          
O        O      0.942000000000     0.864850000000     0.312500000000     0          
O        O      0.911350000000     0.894350000000     0.369025000000     0          
O        O      0.903500000000     0.838450000000     0.365975000000     0          
O        O      0.877750000000     0.833450000000     0.437500000000     0          
O        O      0.500000000000     0.949700000000     0.312500000000     0          
T        Si     0.930400000000     0.864550000000     0.358200000000     0          
T        Si     0.868250000000     0.832000000000     0.391250000000     0          
T        Si     0.572550000000     0.532500000000     0.359525000000     0          
T        Si     0.750000000000     0.629950000000     0.392675000000     0          
T        Si     0.500000000000     0.941000000000     0.358450000000     0          
O        O      0.750000000000     0.843350000000     0.487650000000     0          
O        O      0.715200000000     0.889150000000     0.260250000000     0          
O        O      0.750000000000     0.858550000000     0.312500000000     0          
O        O      0.965250000000     0.953700000000     0.495375000000     0          
O        O      0.896500000000     0.949350000000     0.255475000000     0          
O        O      0.926050000000     0.500000000000     0.250000000000     0          
O        O      0.921750000000     0.966850000000     0.437500000000     0          
O        O      0.558000000000     0.635150000000     0.437500000000     0          
O        O      0.588650000000     0.605650000000     0.494025000000     0          
O        O      0.596500000000     0.661550000000     0.490975000000     0          
O        O      0.622250000000     0.666550000000     0.312500000000     0          
O        O      0.500000000000     0.550300000000     0.437500000000     0          
T        Si     0.569600000000     0.635450000000     0.483200000000     0          
T        Si     0.631750000000     0.668000000000     0.266250000000     0          
T        Si     0.927450000000     0.967500000000     0.484525000000     0          
T        Si     0.750000000000     0.870050000000     0.267675000000     0          
T        Si     0.500000000000     0.559000000000     0.483450000000     0          
O        O      0.750000000000     0.843350000000     0.387350000000     0          
O        O      0.784800000000     0.889150000000     0.364750000000     0          
O        O      0.534750000000     0.953700000000     0.379625000000     0          
O        O      0.603500000000     0.949350000000     0.369525000000     0          
O        O      0.578250000000     0.966850000000     0.437500000000     0          
O        O      0.942000000000     0.635150000000     0.437500000000     0          
O        O      0.911350000000     0.605650000000     0.380975000000     0          
O        O      0.903500000000     0.661550000000     0.384025000000     0          
O        O      0.877750000000     0.666550000000     0.312500000000     0          
T        Si     0.930400000000     0.635450000000     0.391800000000     0          
T        Si     0.868250000000     0.668000000000     0.358750000000     0          
T        Si     0.572550000000     0.967500000000     0.390475000000     0          
T        Si     0.750000000000     0.870050000000     0.357325000000     0          
T        Si     0.500000000000     0.559000000000     0.391550000000     0          
O        O      0.750000000000     0.656650000000     0.262350000000     0          
O        O      0.715200000000     0.610850000000     0.489750000000     0          
O        O      0.965250000000     0.546300000000     0.254625000000     0          
O        O      0.896500000000     0.550650000000     0.494525000000     0          
O        O      0.921750000000     0.533150000000     0.312500000000     0          
O        O      0.558000000000     0.864850000000     0.312500000000     0          
O        O      0.588650000000     0.894350000000     0.255975000000     0          
O        O      0.596500000000     0.838450000000     0.259025000000     0          
O        O      0.622250000000     0.833450000000     0.437500000000     0          
T        Si     0.569600000000     0.864550000000     0.266800000000     0          
T        Si     0.631750000000     0.832000000000     0.483750000000     0          
T        Si     0.927450000000     0.532500000000     0.265475000000     0          
T        Si     0.750000000000     0.629950000000     0.482325000000     0          
T        Si     0.500000000000     0.941000000000     0.266550000000     0          
O        O      0.715200000000     0.889150000000     0.364750000000     0          
O        O      0.965250000000     0.953700000000     0.379625000000     0          
O        O      0.896500000000     0.949350000000     0.369525000000     0          
O        O      0.926050000000     0.500000000000     0.375000000000     0          
O        O      0.588650000000     0.605650000000     0.380975000000     0          
O        O      0.596500000000     0.661550000000     0.384025000000     0          
T        Si     0.569600000000     0.635450000000     0.391800000000     0          
T        Si     0.631750000000     0.668000000000     0.358750000000     0          
T        Si     0.927450000000     0.967500000000     0.390475000000     0          
O        O      0.784800000000     0.610850000000     0.489750000000     0          
O        O      0.534750000000     0.546300000000     0.254625000000     0          
O        O      0.603500000000     0.550650000000     0.494525000000     0          
O        O      0.573950000000     0.500000000000     0.250000000000     0          
O        O      0.911350000000     0.894350000000     0.255975000000     0          
O        O      0.903500000000     0.838450000000     0.259025000000     0          
T        Si     0.930400000000     0.864550000000     0.266800000000     0          
T        Si     0.868250000000     0.832000000000     0.483750000000     0          
T        Si     0.572550000000     0.532500000000     0.265475000000     0          
O        O      0.715200000000     0.610850000000     0.385250000000     0          
O        O      0.965250000000     0.546300000000     0.370375000000     0          
O        O      0.896500000000     0.550650000000     0.380475000000     0          
O        O      0.588650000000     0.894350000000     0.369025000000     0          
O        O      0.596500000000     0.838450000000     0.365975000000     0          
T        Si     0.569600000000     0.864550000000     0.358200000000     0          
T        Si     0.631750000000     0.832000000000     0.391250000000     0          
T        Si     0.927450000000     0.532500000000     0.359525000000     0          
O        O      0.784800000000     0.889150000000     0.260250000000     0          
O        O      0.534750000000     0.953700000000     0.495375000000     0          
O        O      0.603500000000     0.949350000000     0.255475000000     0          
O        O      0.911350000000     0.605650000000     0.494025000000     0          
O        O      0.903500000000     0.661550000000     0.490975000000     0          
T        Si     0.930400000000     0.635450000000     0.483200000000     0          
T        Si     0.868250000000     0.668000000000     0.266250000000     0          
T        Si     0.572550000000     0.967500000000     0.484525000000     0          
O        O      0.500000000000     0.906650000000     0.362650000000     0          
O        O      0.534800000000     0.860850000000     0.385250000000     0          
O        O      0.500000000000     0.891450000000     0.437500000000     0          
O        O      0.784750000000     0.796300000000     0.370375000000     0          
O        O      0.853500000000     0.800650000000     0.380475000000     0          
O        O      0.823950000000     0.750000000000     0.375000000000     0          
O        O      0.828250000000     0.783150000000     0.312500000000     0          
O        O      0.692000000000     0.614850000000     0.312500000000     0          
O        O      0.661350000000     0.644350000000     0.369025000000     0          
O        O      0.653500000000     0.588450000000     0.365975000000     0          
O        O      0.627750000000     0.583450000000     0.437500000000     0          
O        O      0.750000000000     0.699700000000     0.312500000000     0          
T        Si     0.680400000000     0.614550000000     0.358200000000     0          
T        Si     0.618250000000     0.582000000000     0.391250000000     0          
T        Si     0.822550000000     0.782500000000     0.359525000000     0          
T        Si     0.500000000000     0.879950000000     0.392675000000     0          
T        Si     0.750000000000     0.691000000000     0.358450000000     0          
O        O      0.500000000000     0.593350000000     0.487650000000     0          
O        O      0.965200000000     0.639150000000     0.260250000000     0          
O        O      0.500000000000     0.608550000000     0.312500000000     0          
O        O      0.715250000000     0.703700000000     0.495375000000     0          
O        O      0.646500000000     0.699350000000     0.255475000000     0          
O        O      0.676050000000     0.750000000000     0.250000000000     0          
O        O      0.671750000000     0.716850000000     0.437500000000     0          
O        O      0.808000000000     0.885150000000     0.437500000000     0          
O        O      0.838650000000     0.855650000000     0.494025000000     0          
O        O      0.846500000000     0.911550000000     0.490975000000     0          
O        O      0.872250000000     0.916550000000     0.312500000000     0          
O        O      0.750000000000     0.800300000000     0.437500000000     0          
T        Si     0.819600000000     0.885450000000     0.483200000000     0          
T        Si     0.881750000000     0.918000000000     0.266250000000     0          
T        Si     0.677450000000     0.717500000000     0.484525000000     0          
T        Si     0.500000000000     0.620050000000     0.267675000000     0          
T        Si     0.750000000000     0.809000000000     0.483450000000     0          
O        O      0.500000000000     0.593350000000     0.387350000000     0          
O        O      0.534800000000     0.639150000000     0.364750000000     0          
O        O      0.784750000000     0.703700000000     0.379625000000     0          
O        O      0.853500000000     0.699350000000     0.369525000000     0          
O        O      0.828250000000     0.716850000000     0.437500000000     0          
O        O      0.692000000000     0.885150000000     0.437500000000     0          
O        O      0.661350000000     0.855650000000     0.380975000000     0          
O        O      0.653500000000     0.911550000000     0.384025000000     0          
O        O      0.627750000000     0.916550000000     0.312500000000     0          
T        Si     0.680400000000     0.885450000000     0.391800000000     0          
T        Si     0.618250000000     0.918000000000     0.358750000000     0          
T        Si     0.822550000000     0.717500000000     0.390475000000     0          
T        Si     0.500000000000     0.620050000000     0.357325000000     0          
T        Si     0.750000000000     0.809000000000     0.391550000000     0          
O        O      0.500000000000     0.906650000000     0.262350000000     0          
O        O      0.965200000000     0.860850000000     0.489750000000     0          
O        O      0.715250000000     0.796300000000     0.254625000000     0          
O        O      0.646500000000     0.800650000000     0.494525000000     0          
O        O      0.671750000000     0.783150000000     0.312500000000     0          
O        O      0.808000000000     0.614850000000     0.312500000000     0          
O        O      0.838650000000     0.644350000000     0.255975000000     0          
O        O      0.846500000000     0.588450000000     0.259025000000     0          
O        O      0.872250000000     0.583450000000     0.437500000000     0          
T        Si     0.819600000000     0.614550000000     0.266800000000     0          
T        Si     0.881750000000     0.582000000000     0.483750000000     0          
T        Si     0.677450000000     0.782500000000     0.265475000000     0          
T        Si     0.500000000000     0.879950000000     0.482325000000     0          
T        Si     0.750000000000     0.691000000000     0.266550000000     0          
O        O      0.965200000000     0.639150000000     0.364750000000     0          
O        O      0.715250000000     0.703700000000     0.379625000000     0          
O        O      0.646500000000     0.699350000000     0.369525000000     0          
O        O      0.676050000000     0.750000000000     0.375000000000     0          
O        O      0.838650000000     0.855650000000     0.380975000000     0          
O        O      0.846500000000     0.911550000000     0.384025000000     0          
T        Si     0.819600000000     0.885450000000     0.391800000000     0          
T        Si     0.881750000000     0.918000000000     0.358750000000     0          
T        Si     0.677450000000     0.717500000000     0.390475000000     0          
O        O      0.534800000000     0.860850000000     0.489750000000     0          
O        O      0.784750000000     0.796300000000     0.254625000000     0          
O        O      0.853500000000     0.800650000000     0.494525000000     0          
O        O      0.823950000000     0.750000000000     0.250000000000     0          
O        O      0.661350000000     0.644350000000     0.255975000000     0          
O        O      0.653500000000     0.588450000000     0.259025000000     0          
T        Si     0.680400000000     0.614550000000     0.266800000000     0          
T        Si     0.618250000000     0.582000000000     0.483750000000     0          
T        Si     0.822550000000     0.782500000000     0.265475000000     0          
O        O      0.965200000000     0.860850000000     0.385250000000     0          
O        O      0.715250000000     0.796300000000     0.370375000000     0          
O        O      0.646500000000     0.800650000000     0.380475000000     0          
O        O      0.838650000000     0.644350000000     0.369025000000     0          
O        O      0.846500000000     0.588450000000     0.365975000000     0          
T        Si     0.819600000000     0.614550000000     0.358200000000     0          
T        Si     0.881750000000     0.582000000000     0.391250000000     0          
T        Si     0.677450000000     0.782500000000     0.359525000000     0          
O        O      0.534800000000     0.639150000000     0.260250000000     0          
O        O      0.784750000000     0.703700000000     0.495375000000     0          
O        O      0.853500000000     0.699350000000     0.255475000000     0          
O        O      0.661350000000     0.855650000000     0.494025000000     0          
O        O      0.653500000000     0.911550000000     0.490975000000     0          
T        Si     0.680400000000     0.885450000000     0.483200000000     0          
T        Si     0.618250000000     0.918000000000     0.266250000000     0          
T        Si     0.822550000000     0.717500000000     0.484525000000     0          
O        O      0.750000000000     0.656650000000     0.612650000000     0          
O        O      0.784800000000     0.610850000000     0.635250000000     0          
O        O      0.750000000000     0.641450000000     0.687500000000     0          
O        O      0.534750000000     0.546300000000     0.620375000000     0          
O        O      0.603500000000     0.550650000000     0.630475000000     0          
O        O      0.573950000000     0.500000000000     0.625000000000     0          
O        O      0.578250000000     0.533150000000     0.562500000000     0          
O        O      0.942000000000     0.864850000000     0.562500000000     0          
O        O      0.911350000000     0.894350000000     0.619025000000     0          
O        O      0.903500000000     0.838450000000     0.615975000000     0          
O        O      0.877750000000     0.833450000000     0.687500000000     0          
O        O      0.500000000000     0.949700000000     0.562500000000     0          
T        Si     0.930400000000     0.864550000000     0.608200000000     0          
T        Si     0.868250000000     0.832000000000     0.641250000000     0          
T        Si     0.572550000000     0.532500000000     0.609525000000     0          
T        Si     0.750000000000     0.629950000000     0.642675000000     0          
T        Si     0.500000000000     0.941000000000     0.608450000000     0          
O        O      0.750000000000     0.843350000000     0.737650000000     0          
O        O      0.715200000000     0.889150000000     0.510250000000     0          
O        O      0.750000000000     0.858550000000     0.562500000000     0          
O        O      0.965250000000     0.953700000000     0.745375000000     0          
O        O      0.896500000000     0.949350000000     0.505475000000     0          
O        O      0.926050000000     0.500000000000     0.500000000000     0          
O        O      0.921750000000     0.966850000000     0.687500000000     0          
O        O      0.558000000000     0.635150000000     0.687500000000     0          
O        O      0.588650000000     0.605650000000     0.744025000000     0          
O        O      0.596500000000     0.661550000000     0.740975000000     0          
O        O      0.622250000000     0.666550000000     0.562500000000     0          
O        O      0.500000000000     0.550300000000     0.687500000000     0          
T        Si     0.569600000000     0.635450000000     0.733200000000     0          
T        Si     0.631750000000     0.668000000000     0.516250000000     0          
T        Si     0.927450000000     0.967500000000     0.734525000000     0          
T        Si     0.750000000000     0.870050000000     0.517675000000     0          
T        Si     0.500000000000     0.559000000000     0.733450000000     0          
O        O      0.750000000000     0.843350000000     0.637350000000     0          
O        O      0.784800000000     0.889150000000     0.614750000000     0          
O        O      0.534750000000     0.953700000000     0.629625000000     0          
O        O      0.603500000000     0.949350000000     0.619525000000     0          
O        O      0.578250000000     0.966850000000     0.687500000000     0          
O        O      0.942000000000     0.635150000000     0.687500000000     0          
O        O      0.911350000000     0.605650000000     0.630975000000     0          
O        O      0.903500000000     0.661550000000     0.634025000000     0          
O        O      0.877750000000     0.666550000000     0.562500000000     0          
T        Si     0.930400000000     0.635450000000     0.641800000000     0          
T        Si     0.868250000000     0.668000000000     0.608750000000     0          
T        Si     0.572550000000     0.967500000000     0.640475000000     0          
T        Si     0.750000000000     0.870050000000     0.607325000000     0          
T        Si     0.500000000000     0.559000000000     0.641550000000     0          
O        O      0.750000000000     0.656650000000     0.512350000000     0          
O        O      0.715200000000     0.610850000000     0.739750000000     0          
O        O      0.965250000000     0.546300000000     0.504625000000     0          
O        O      0.896500000000     0.550650000000     0.744525000000     0          
O        O      0.921750000000     0.533150000000     0.562500000000     0          
O        O      0.558000000000     0.864850000000     0.562500000000     0          
O        O      0.588650000000     0.894350000000     0.505975000000     0          
O        O      0.596500000000     0.838450000000     0.509025000000     0          
O        O      0.622250000000     0.833450000000     0.687500000000     0          
T        Si     0.569600000000     0.864550000000     0.516800000000     0          
T        Si     0.631750000000     0.832000000000     0.733750000000     0          
T        Si     0.927450000000     0.532500000000     0.515475000000     0          
T        Si     0.750000000000     0.629950000000     0.732325000000     0          
T        Si     0.500000000000     0.941000000000     0.516550000000     0          
O        O      0.715200000000     0.889150000000     0.614750000000     0          
O        O      0.965250000000     0.953700000000     0.629625000000     0          
O        O      0.896500000000     0.949350000000     0.619525000000     0          
O        O      0.926050000000     0.500000000000     0.625000000000     0          
O        O      0.588650000000     0.605650000000     0.630975000000     0          
O        O      0.596500000000     0.661550000000     0.634025000000     0          
T        Si     0.569600000000     0.635450000000     0.641800000000     0          
T        Si     0.631750000000     0.668000000000     0.608750000000     0          
T        Si     0.927450000000     0.967500000000     0.640475000000     0          
O        O      0.784800000000     0.610850000000     0.739750000000     0          
O        O      0.534750000000     0.546300000000     0.504625000000     0          
O        O      0.603500000000     0.550650000000     0.744525000000     0          
O        O      0.573950000000     0.500000000000     0.500000000000     0          
O        O      0.911350000000     0.894350000000     0.505975000000     0          
O        O      0.903500000000     0.838450000000     0.509025000000     0          
T        Si     0.930400000000     0.864550000000     0.516800000000     0          
T        Si     0.868250000000     0.832000000000     0.733750000000     0          
T        Si     0.572550000000     0.532500000000     0.515475000000     0          
O        O      0.715200000000     0.610850000000     0.635250000000     0          
O        O      0.965250000000     0.546300000000     0.620375000000     0          
O        O      0.896500000000     0.550650000000     0.630475000000     0          
O        O      0.588650000000     0.894350000000     0.619025000000     0          
O        O      0.596500000000     0.838450000000     0.615975000000     0          
T        Si     0.569600000000     0.864550000000     0.608200000000     0          
T        Si     0.631750000000     0.832000000000     0.641250000000     0          
T        Si     0.927450000000     0.532500000000     0.609525000000     0          
O        O      0.784800000000     0.889150000000     0.510250000000     0          
O        O      0.534750000000     0.953700000000     0.745375000000     0          
O        O      0.603500000000     0.949350000000     0.505475000000     0          
O        O      0.911350000000     0.605650000000     0.744025000000     0          
O        O      0.903500000000     0.661550000000     0.740975000000     0          
T        Si     0.930400000000     0.635450000000     0.733200000000     0          
T        Si     0.868250000000     0.668000000000     0.516250000000     0          
T        Si     0.572550000000     0.967500000000     0.734525000000     0          
O        O      0.500000000000     0.906650000000     0.612650000000     0          
O        O      0.534800000000     0.860850000000     0.635250000000     0          
O        O      0.500000000000     0.891450000000     0.687500000000     0          
O        O      0.784750000000     0.796300000000     0.620375000000     0          
O        O      0.853500000000     0.800650000000     0.630475000000     0          
O        O      0.823950000000     0.750000000000     0.625000000000     0          
O        O      0.828250000000     0.783150000000     0.562500000000     0          
O        O      0.692000000000     0.614850000000     0.562500000000     0          
O        O      0.661350000000     0.644350000000     0.619025000000     0          
O        O      0.653500000000     0.588450000000     0.615975000000     0          
O        O      0.627750000000     0.583450000000     0.687500000000     0          
O        O      0.750000000000     0.699700000000     0.562500000000     0          
T        Si     0.680400000000     0.614550000000     0.608200000000     0          
T        Si     0.618250000000     0.582000000000     0.641250000000     0          
T        Si     0.822550000000     0.782500000000     0.609525000000     0          
T        Si     0.500000000000     0.879950000000     0.642675000000     0          
T        Si     0.750000000000     0.691000000000     0.608450000000     0          
O        O      0.500000000000     0.593350000000     0.737650000000     0          
O        O      0.965200000000     0.639150000000     0.510250000000     0          
O        O      0.500000000000     0.608550000000     0.562500000000     0          
O        O      0.715250000000     0.703700000000     0.745375000000     0          
O        O      0.646500000000     0.699350000000     0.505475000000     0          
O        O      0.676050000000     0.750000000000     0.500000000000     0          
O        O      0.671750000000     0.716850000000     0.687500000000     0          
O        O      0.808000000000     0.885150000000     0.687500000000     0          
O        O      0.838650000000     0.855650000000     0.744025000000     0          
O        O      0.846500000000     0.911550000000     0.740975000000     0          
O        O      0.872250000000     0.916550000000     0.562500000000     0          
O        O      0.750000000000     0.800300000000     0.687500000000     0          
T        Si     0.819600000000     0.885450000000     0.733200000000     0          
T        Si     0.881750000000     0.918000000000     0.516250000000     0          
T        Si     0.677450000000     0.717500000000     0.734525000000     0          
T        Si     0.500000000000     0.620050000000     0.517675000000     0          
T        Si     0.750000000000     0.809000000000     0.733450000000     0          
O        O      0.500000000000     0.593350000000     0.637350000000     0          
O        O      0.534800000000     0.639150000000     0.614750000000     0          
O        O      0.784750000000     0.703700000000     0.629625000000     0          
O        O      0.853500000000     0.699350000000     0.619525000000     0          
O        O      0.828250000000     0.716850000000     0.687500000000     0          
O        O      0.692000000000     0.885150000000     0.687500000000     0          
O        O      0.661350000000     0.855650000000     0.630975000000     0          
O        O      0.653500000000     0.911550000000     0.634025000000     0          
O        O      0.627750000000     0.916550000000     0.562500000000     0          
T        Si     0.680400000000     0.885450000000     0.641800000000     0          
T        Si     0.618250000000     0.918000000000     0.608750000000     0          
T        Si     0.822550000000     0.717500000000     0.640475000000     0          
T        Si     0.500000000000     0.620050000000     0.607325000000     0          
T        Si     0.750000000000     0.809000000000     0.641550000000     0          
O        O      0.500000000000     0.906650000000     0.512350000000     0          
O        O      0.965200000000     0.860850000000     0.739750000000     0          
O        O      0.715250000000     0.796300000000     0.504625000000     0          
O        O      0.646500000000     0.800650000000     0.744525000000     0          
O        O      0.671750000000     0.783150000000     0.562500000000     0          
O        O      0.808000000000     0.614850000000     0.562500000000     0          
O        O      0.838650000000     0.644350000000     0.505975000000     0          
O        O      0.846500000000     0.588450000000     0.509025000000     0          
O        O      0.872250000000     0.583450000000     0.687500000000     0          
T        Si     0.819600000000     0.614550000000     0.516800000000     0          
T        Si     0.881750000000     0.582000000000     0.733750000000     0          
T        Si     0.677450000000     0.782500000000     0.515475000000     0          
T        Si     0.500000000000     0.879950000000     0.732325000000     0          
T        Si     0.750000000000     0.691000000000     0.516550000000     0          
O        O      0.965200000000     0.639150000000     0.614750000000     0          
O        O      0.715250000000     0.703700000000     0.629625000000     0          
O        O      0.646500000000     0.699350000000     0.619525000000     0          
O        O      0.676050000000     0.750000000000     0.625000000000     0          
O        O      0.838650000000     0.855650000000     0.630975000000     0          
O        O      0.846500000000     0.911550000000     0.634025000000     0          
T        Si     0.819600000000     0.885450000000     0.641800000000     0          
T        Si     0.881750000000     0.918000000000     0.608750000000     0          
T        Si     0.677450000000     0.717500000000     0.640475000000     0          
O        O      0.534800000000     0.860850000000     0.739750000000     0          
O        O      0.784750000000     0.796300000000     0.504625000000     0          
O        O      0.853500000000     0.800650000000     0.744525000000     0          
O        O      0.823950000000     0.750000000000     0.500000000000     0          
O        O      0.661350000000     0.644350000000     0.505975000000     0          
O        O      0.653500000000     0.588450000000     0.509025000000     0          
T        Si     0.680400000000     0.614550000000     0.516800000000     0          
T        Si     0.618250000000     0.582000000000     0.733750000000     0          
T        Si     0.822550000000     0.782500000000     0.515475000000     0          
O        O      0.965200000000     0.860850000000     0.635250000000     0          
O        O      0.715250000000     0.796300000000     0.620375000000     0          
O        O      0.646500000000     0.800650000000     0.630475000000     0          
O        O      0.838650000000     0.644350000000     0.619025000000     0          
O        O      0.846500000000     0.588450000000     0.615975000000     0          
T        Si     0.819600000000     0.614550000000     0.608200000000     0          
T        Si     0.881750000000     0.582000000000     0.641250000000     0          
T        Si     0.677450000000     0.782500000000     0.609525000000     0          
O        O      0.534800000000     0.639150000000     0.510250000000     0          
O        O      0.784750000000     0.703700000000     0.745375000000     0          
O        O      0.853500000000     0.699350000000     0.505475000000     0          
O        O      0.661350000000     0.855650000000     0.744025000000     0          
O        O      0.653500000000     0.911550000000     0.740975000000     0          
T        Si     0.680400000000     0.885450000000     0.733200000000     0          
T        Si     0.618250000000     0.918000000000     0.516250000000     0          
T        Si     0.822550000000     0.717500000000     0.734525000000     0          
O        O      0.750000000000     0.656650000000     0.862650000000     0          
O        O      0.784800000000     0.610850000000     0.885250000000     0          
O        O      0.750000000000     0.641450000000     0.937500000000     0          
O        O      0.534750000000     0.546300000000     0.870375000000     0          
O        O      0.603500000000     0.550650000000     0.880475000000     0          
O        O      0.573950000000     0.500000000000     0.875000000000     0          
O        O      0.578250000000     0.533150000000     0.812500000000     0          
O        O      0.942000000000     0.864850000000     0.812500000000     0          
O        O      0.911350000000     0.894350000000     0.869025000000     0          
O        O      0.903500000000     0.838450000000     0.865975000000     0          
O        O      0.877750000000     0.833450000000     0.937500000000     0          
O        O      0.500000000000     0.949700000000     0.812500000000     0          
T        Si     0.930400000000     0.864550000000     0.858200000000     0          
T        Si     0.868250000000     0.832000000000     0.891250000000     0          
T        Si     0.572550000000     0.532500000000     0.859525000000     0          
T        Si     0.750000000000     0.629950000000     0.892675000000     0          
T        Si     0.500000000000     0.941000000000     0.858450000000     0          
O        O      0.750000000000     0.843350000000     0.987650000000     0          
O        O      0.715200000000     0.889150000000     0.760250000000     0          
O        O      0.750000000000     0.858550000000     0.812500000000     0          
O        O      0.965250000000     0.953700000000     0.995375000000     0          
O        O      0.896500000000     0.949350000000     0.755475000000     0          
O        O      0.926050000000     0.500000000000     0.750000000000     0          
O        O      0.921750000000     0.966850000000     0.937500000000     0          
O        O      0.558000000000     0.635150000000     0.937500000000     0          
O        O      0.588650000000     0.605650000000     0.994025000000     0          
O        O      0.596500000000     0.661550000000     0.990975000000     0          
O        O      0.622250000000     0.666550000000     0.812500000000     0          
O        O      0.500000000000     0.550300000000     0.937500000000     0          
T        Si     0.569600000000     0.635450000000     0.983200000000     0          
T        Si     0.631750000000     0.668000000000     0.766250000000     0          
T        Si     0.927450000000     0.967500000000     0.984525000000     0          
T        Si     0.750000000000     0.870050000000     0.767675000000     0          
T        Si     0.500000000000     0.559000000000     0.983450000000     0          
O        O      0.750000000000     0.843350000000     0.887350000000     0          
O        O      0.784800000000     0.889150000000     0.864750000000     0          
O        O      0.534750000000     0.953700000000     0.879625000000     0          
O        O      0.603500000000     0.949350000000     0.869525000000     0          
O        O      0.578250000000     0.966850000000     0.937500000000     0          
O        O      0.942000000000     0.635150000000     0.937500000000     0          
O        O      0.911350000000     0.605650000000     0.880975000000     0          
O        O      0.903500000000     0.661550000000     0.884025000000     0          
O        O      0.877750000000     0.666550000000     0.812500000000     0          
T        Si     0.930400000000     0.635450000000     0.891800000000     0          
T        Si     0.868250000000     0.668000000000     0.858750000000     0          
T        Si     0.572550000000     0.967500000000     0.890475000000     0          
T        Si     0.750000000000     0.870050000000     0.857325000000     0          
T        Si     0.500000000000     0.559000000000     0.891550000000     0          
O        O      0.750000000000     0.656650000000     0.762350000000     0          
O        O      0.715200000000     0.610850000000     0.989750000000     0          
O        O      0.965250000000     0.546300000000     0.754625000000     0          
O        O      0.896500000000     0.550650000000     0.994525000000     0          
O        O      0.921750000000     0.533150000000     0.812500000000     0          
O        O      0.558000000000     0.864850000000     0.812500000000     0          
O        O      0.588650000000     0.894350000000     0.755975000000     0          
O        O      0.596500000000     0.838450000000     0.759025000000     0          
O        O      0.622250000000     0.833450000000     0.937500000000     0          
T        Si     0.569600000000     0.864550000000     0.766800000000     0          
T        Si     0.631750000000     0.832000000000     0.983750000000     0          
T        Si     0.927450000000     0.532500000000     0.765475000000     0          
T        Si     0.750000000000     0.629950000000     0.982325000000     0          
T        Si     0.500000000000     0.941000000000     0.766550000000     0          
O        O      0.715200000000     0.889150000000     0.864750000000     0          
O        O      0.965250000000     0.953700000000     0.879625000000     0          
O        O      0.896500000000     0.949350000000     0.869525000000     0          
O        O      0.926050000000     0.500000000000     0.875000000000     0          
O        O      0.588650000000     0.605650000000     0.880975000000     0          
O        O      0.596500000000     0.661550000000     0.884025000000     0          
T        Si     0.569600000000     0.635450000000     0.891800000000     0          
T        Si     0.631750000000     0.668000000000     0.858750000000     0          
T        Si     0.927450000000     0.967500000000     0.890475000000     0          
O        O      0.784800000000     0.610850000000     0.989750000000     0          
O        O      0.534750000000     0.546300000000     0.754625000000     0          
O        O      0.603500000000     0.550650000000     0.994525000000     0          
O        O      0.573950000000     0.500000000000     0.750000000000     0          
O        O      0.911350000000     0.894350000000     0.755975000000     0          
O        O      0.903500000000     0.838450000000     0.759025000000     0          
T        Si     0.930400000000     0.864550000000     0.766800000000     0          
T        Si     0.868250000000     0.832000000000     0.983750000000     0          
T        Si     0.572550000000     0.532500000000     0.765475000000     0          
O        O      0.715200000000     0.610850000000     0.885250000000     0          
O        O      0.965250000000     0.546300000000     0.870375000000     0          
O        O      0.896500000000     0.550650000000     0.880475000000     0          
O        O      0.588650000000     0.894350000000     0.869025000000     0          
O        O      0.596500000000     0.838450000000     0.865975000000     0          
T        Si     0.569600000000     0.864550000000     0.858200000000     0          
T        Si     0.631750000000     0.832000000000     0.891250000000     0          
T        Si     0.927450000000     0.532500000000     0.859525000000     0          
O        O      0.784800000000     0.889150000000     0.760250000000     0          
O        O      0.534750000000     0.953700000000     0.995375000000     0          
O        O      0.603500000000     0.949350000000     0.755475000000     0          
O        O      0.911350000000     0.605650000000     0.994025000000     0          
O        O      0.903500000000     0.661550000000     0.990975000000     0          
T        Si     0.930400000000     0.635450000000     0.983200000000     0          
T        Si     0.868250000000     0.668000000000     0.766250000000     0          
T        Si     0.572550000000     0.967500000000     0.984525000000     0          
O        O      0.500000000000     0.906650000000     0.862650000000     0          
O        O      0.534800000000     0.860850000000     0.885250000000     0          
O        O      0.500000000000     0.891450000000     0.937500000000     0          
O        O      0.784750000000     0.796300000000     0.870375000000     0          
O        O      0.853500000000     0.800650000000     0.880475000000     0          
O        O      0.823950000000     0.750000000000     0.875000000000     0          
O        O      0.828250000000     0.783150000000     0.812500000000     0          
O        O      0.692000000000     0.614850000000     0.812500000000     0          
O        O      0.661350000000     0.644350000000     0.869025000000     0          
O        O      0.653500000000     0.588450000000     0.865975000000     0          
O        O      0.627750000000     0.583450000000     0.937500000000     0          
O        O      0.750000000000     0.699700000000     0.812500000000     0          
T        Si     0.680400000000     0.614550000000     0.858200000000     0          
T        Si     0.618250000000     0.582000000000     0.891250000000     0          
T        Si     0.822550000000     0.782500000000     0.859525000000     0          
T        Si     0.500000000000     0.879950000000     0.892675000000     0          
T        Si     0.750000000000     0.691000000000     0.858450000000     0          
O        O      0.500000000000     0.593350000000     0.987650000000     0          
O        O      0.965200000000     0.639150000000     0.760250000000     0          
O        O      0.500000000000     0.608550000000     0.812500000000     0          
O        O      0.715250000000     0.703700000000     0.995375000000     0          
O        O      0.646500000000     0.699350000000     0.755475000000     0          
O        O      0.676050000000     0.750000000000     0.750000000000     0          
O        O      0.671750000000     0.716850000000     0.937500000000     0          
O        O      0.808000000000     0.885150000000     0.937500000000     0          
O        O      0.838650000000     0.855650000000     0.994025000000     0          
O        O      0.846500000000     0.911550000000     0.990975000000     0          
O        O      0.872250000000     0.916550000000     0.812500000000     0          
O        O      0.750000000000     0.800300000000     0.937500000000     0          
T        Si     0.819600000000     0.885450000000     0.983200000000     0          
T        Si     0.881750000000     0.918000000000     0.766250000000     0          
T        Si     0.677450000000     0.717500000000     0.984525000000     0          
T        Si     0.500000000000     0.620050000000     0.767675000000     0          
T        Si     0.750000000000     0.809000000000     0.983450000000     0          
O        O      0.500000000000     0.593350000000     0.887350000000     0          
O        O      0.534800000000     0.639150000000     0.864750000000     0          
O        O      0.784750000000     0.703700000000     0.879625000000     0          
O        O      0.853500000000     0.699350000000     0.869525000000     0          
O        O      0.828250000000     0.716850000000     0.937500000000     0          
O        O      0.692000000000     0.885150000000     0.937500000000     0          
O        O      0.661350000000     0.855650000000     0.880975000000     0          
O        O      0.653500000000     0.911550000000     0.884025000000     0          
O        O      0.627750000000     0.916550000000     0.812500000000     0          
T        Si     0.680400000000     0.885450000000     0.891800000000     0          
T        Si     0.618250000000     0.918000000000     0.858750000000     0          
T        Si     0.822550000000     0.717500000000     0.890475000000     0          
T        Si     0.500000000000     0.620050000000     0.857325000000     0          
T        Si     0.750000000000     0.809000000000     0.891550000000     0          
O        O      0.500000000000     0.906650000000     0.762350000000     0          
O        O      0.965200000000     0.860850000000     0.989750000000     0          
O        O      0.715250000000     0.796300000000     0.754625000000     0          
O        O      0.646500000000     0.800650000000     0.994525000000     0          
O        O      0.671750000000     0.783150000000     0.812500000000     0          
O        O      0.808000000000     0.614850000000     0.812500000000     0          
O        O      0.838650000000     0.644350000000     0.755975000000     0          
O        O      0.846500000000     0.588450000000     0.759025000000     0          
O        O      0.872250000000     0.583450000000     0.937500000000     0          
T        Si     0.819600000000     0.614550000000     0.766800000000     0          
T        Si     0.881750000000     0.582000000000     0.983750000000     0          
T        Si     0.677450000000     0.782500000000     0.765475000000     0          
T        Si     0.500000000000     0.879950000000     0.982325000000     0          
T        Si     0.750000000000     0.691000000000     0.766550000000     0          
O        O      0.965200000000     0.639150000000     0.864750000000     0          
O        O      0.715250000000     0.703700000000     0.879625000000     0          
O        O      0.646500000000     0.699350000000     0.869525000000     0          
O        O      0.676050000000     0.750000000000     0.875000000000     0          
O        O      0.838650000000     0.855650000000     0.880975000000     0          
O        O      0.846500000000     0.911550000000     0.884025000000     0          
T        Si     0.819600000000     0.885450000000     0.891800000000     0          
T        Si     0.881750000000     0.918000000000     0.858750000000     0          
T        Si     0.677450000000     0.717500000000     0.890475000000     0          
O        O      0.534800000000     0.860850000000     0.989750000000     0          
O        O      0.784750000000     0.796300000000     0.754625000000     0          
O        O      0.853500000000     0.800650000000     0.994525000000     0          
O        O      0.823950000000     0.750000000000     0.750000000000     0          
O        O      0.661350000000     0.644350000000     0.755975000000     0          
O        O      0.653500000000     0.588450000000     0.759025000000     0          
T        Si     0.680400000000     0.614550000000     0.766800000000     0          
T        Si     0.618250000000     0.582000000000     0.983750000000     0          
T        Si     0.822550000000     0.782500000000     0.765475000000     0          
O        O      0.965200000000     0.860850000000     0.885250000000     0          
O        O      0.715250000000     0.796300000000     0.870375000000     0          
O        O      0.646500000000     0.800650000000     0.880475000000     0          
O        O      0.838650000000     0.644350000000     0.869025000000     0          
O        O      0.846500000000     0.588450000000     0.865975000000     0          
T        Si     0.819600000000     0.614550000000     0.858200000000     0          
T        Si     0.881750000000     0.582000000000     0.891250000000     0          
T        Si     0.677450000000     0.782500000000     0.859525000000     0          
O        O      0.534800000000     0.639150000000     0.760250000000     0          
O        O      0.784750000000     0.703700000000     0.995375000000     0          
O        O      0.853500000000     0.699350000000     0.755475000000     0          
O        O      0.661350000000     0.855650000000     0.994025000000     0          
O        O      0.653500000000     0.911550000000     0.990975000000     0          
T        Si     0.680400000000     0.885450000000     0.983200000000     0          
T        Si     0.618250000000     0.918000000000     0.766250000000     0          
T        Si     0.822550000000     0.717500000000     0.984525000000     0          


