data_zeolite

_audit_creation_method RASPA-1.0
_audit_creation_date 2021-6-7
_audit_author_name ''

_cell_length_a    37.677
_cell_length_b    37.677
_cell_length_c    41.026
_cell_angle_alpha 90
_cell_angle_beta  90
_cell_angle_gamma 120
_cell_volume      50436.2

_symmetry_cell_setting          hexagonal
_symmetry_space_group_name_Hall 'P 1'
_symmetry_space_group_name_H-M  'P 1'
_symmetry_Int_Tables_number     1

_symmetry_equiv_pos_as_xyz 'x,y,z'

loop_
_atom_site_label
_atom_site_type_symbol
_atom_site_fract_x
_atom_site_fract_y
_atom_site_fract_z
_atom_site_charge
O        O      0.233700000000     0.013666666667     0.970000000000     0          
O        O      0.257333333333     0.295333333333     0.989300000000     0          
O        O      0.143466666667     0.286900000000     0.750000000000     0          
O        O      0.211933333333     0.331933333333     0.782100000000     0          
O        O      0.202033333333     0.267700000000     0.750000000000     0          
O        O      0.214900000000     0.209333333333     0.090400000000     0          
O        O      0.191533333333     0.262433333333     0.075000000000     0          
O        O      0.147666666667     0.185666666667     0.056100000000     0          
O        O      0.144800000000     0.289600000000     0.871600000000     0          
O        O      0.217633333333     0.003733333333     0.846100000000     0          
O        O      0.200766666667     0.267066666667     0.872500000000     0          
O        O      0.144500000000     0.188833333333     0.186100000000     0          
O        O      0.200666666667     0.267000000000     0.190300000000     0          
T        Si     0.193400000000     0.222700000000     0.063000000000     0          
T        Si     0.193000000000     0.305200000000     0.875000000000     0          
T        Si     0.192933333333     0.221166666667     0.187000000000     0          
T        Si     0.192200000000     0.304566666667     0.750000000000     0          
T        Si     0.251666666667     0.000000000000     0.000000000000     0          
O        O      0.220033333333     0.233700000000     0.470000000000     0          
O        O      0.295333333333     0.257333333333     0.489300000000     0          
O        O      0.189900000000     0.143466666667     0.250000000000     0          
O        O      0.213333333333     0.211933333333     0.282100000000     0          
O        O      0.267666666667     0.202033333333     0.250000000000     0          
O        O      0.005566666667     0.214900000000     0.590400000000     0          
O        O      0.262433333333     0.191533333333     0.575000000000     0          
O        O      0.295333333333     0.147666666667     0.556100000000     0          
O        O      0.188533333333     0.144800000000     0.371600000000     0          
O        O      0.213900000000     0.217633333333     0.346100000000     0          
O        O      0.267033333333     0.200766666667     0.372500000000     0          
O        O      0.289000000000     0.144500000000     0.686100000000     0          
O        O      0.267000000000     0.200666666667     0.690300000000     0          
T        Si     0.304033333333     0.193400000000     0.563000000000     0          
T        Si     0.221133333333     0.193000000000     0.375000000000     0          
T        Si     0.305100000000     0.192933333333     0.687000000000     0          
T        Si     0.220966666667     0.192200000000     0.250000000000     0          
T        Si     0.251666666667     0.251666666667     0.500000000000     0          
O        O      0.319666666667     0.220033333333     0.970000000000     0          
O        O      0.038000000000     0.295333333333     0.989300000000     0          
O        O      0.046433333333     0.189900000000     0.750000000000     0          
O        O      0.001400000000     0.213333333333     0.782100000000     0          
O        O      0.065633333333     0.267666666667     0.750000000000     0          
O        O      0.124000000000     0.005566666667     0.090400000000     0          
O        O      0.070900000000     0.262433333333     0.075000000000     0          
O        O      0.147666666667     0.295333333333     0.056100000000     0          
O        O      0.043733333333     0.188533333333     0.871600000000     0          
O        O      0.329600000000     0.213900000000     0.846100000000     0          
O        O      0.066266666667     0.267033333333     0.872500000000     0          
O        O      0.144500000000     0.289000000000     0.186100000000     0          
O        O      0.066333333333     0.267000000000     0.190300000000     0          
T        Si     0.110633333333     0.304033333333     0.063000000000     0          
T        Si     0.028133333333     0.221133333333     0.875000000000     0          
T        Si     0.112166666667     0.305100000000     0.187000000000     0          
T        Si     0.028766666667     0.220966666667     0.750000000000     0          
T        Si     0.000000000000     0.251666666667     0.000000000000     0          
O        O      0.099633333333     0.319666666667     0.470000000000     0          
O        O      0.076000000000     0.038000000000     0.489300000000     0          
O        O      0.189866666667     0.046433333333     0.250000000000     0          
O        O      0.121400000000     0.001400000000     0.282100000000     0          
O        O      0.131300000000     0.065633333333     0.250000000000     0          
O        O      0.118433333333     0.124000000000     0.590400000000     0          
O        O      0.141800000000     0.070900000000     0.575000000000     0          
O        O      0.185666666667     0.147666666667     0.556100000000     0          
O        O      0.188533333333     0.043733333333     0.371600000000     0          
O        O      0.115700000000     0.329600000000     0.346100000000     0          
O        O      0.132566666667     0.066266666667     0.372500000000     0          
O        O      0.188833333333     0.144500000000     0.686100000000     0          
O        O      0.132666666667     0.066333333333     0.690300000000     0          
T        Si     0.139933333333     0.110633333333     0.563000000000     0          
T        Si     0.140333333333     0.028133333333     0.375000000000     0          
T        Si     0.140400000000     0.112166666667     0.687000000000     0          
T        Si     0.141133333333     0.028766666667     0.250000000000     0          
T        Si     0.081666666667     0.000000000000     0.500000000000     0          
O        O      0.113300000000     0.099633333333     0.970000000000     0          
O        O      0.038000000000     0.076000000000     0.989300000000     0          
O        O      0.143433333333     0.189866666667     0.750000000000     0          
O        O      0.120000000000     0.121400000000     0.782100000000     0          
O        O      0.065666666667     0.131300000000     0.750000000000     0          
O        O      0.327766666667     0.118433333333     0.090400000000     0          
O        O      0.070900000000     0.141800000000     0.075000000000     0          
O        O      0.038000000000     0.185666666667     0.056100000000     0          
O        O      0.144800000000     0.188533333333     0.871600000000     0          
O        O      0.119433333333     0.115700000000     0.846100000000     0          
O        O      0.066300000000     0.132566666667     0.872500000000     0          
O        O      0.044333333333     0.188833333333     0.186100000000     0          
O        O      0.066333333333     0.132666666667     0.190300000000     0          
T        Si     0.029300000000     0.139933333333     0.063000000000     0          
T        Si     0.112200000000     0.140333333333     0.875000000000     0          
T        Si     0.028233333333     0.140400000000     0.187000000000     0          
T        Si     0.112366666667     0.141133333333     0.750000000000     0          
T        Si     0.081666666667     0.081666666667     0.000000000000     0          
O        O      0.013666666667     0.113300000000     0.470000000000     0          
O        O      0.295333333333     0.038000000000     0.489300000000     0          
O        O      0.286900000000     0.143433333333     0.250000000000     0          
O        O      0.331933333333     0.120000000000     0.282100000000     0          
O        O      0.267700000000     0.065666666667     0.250000000000     0          
O        O      0.209333333333     0.327766666667     0.590400000000     0          
O        O      0.262433333333     0.070900000000     0.575000000000     0          
O        O      0.185666666667     0.038000000000     0.556100000000     0          
O        O      0.289600000000     0.144800000000     0.371600000000     0          
O        O      0.003733333333     0.119433333333     0.346100000000     0          
O        O      0.267066666667     0.066300000000     0.372500000000     0          
O        O      0.188833333333     0.044333333333     0.686100000000     0          
O        O      0.267000000000     0.066333333333     0.690300000000     0          
T        Si     0.222700000000     0.029300000000     0.563000000000     0          
T        Si     0.305200000000     0.112200000000     0.375000000000     0          
T        Si     0.221166666667     0.028233333333     0.687000000000     0          
T        Si     0.304566666667     0.112366666667     0.250000000000     0          
T        Si     0.000000000000     0.081666666667     0.500000000000     0          
O        O      0.319666666667     0.099633333333     0.530000000000     0          
O        O      0.038000000000     0.076000000000     0.510700000000     0          
O        O      0.001400000000     0.121400000000     0.717900000000     0          
O        O      0.124000000000     0.118433333333     0.409600000000     0          
O        O      0.070900000000     0.141800000000     0.425000000000     0          
O        O      0.147666666667     0.185666666667     0.443900000000     0          
O        O      0.043733333333     0.188533333333     0.628400000000     0          
O        O      0.329600000000     0.115700000000     0.653900000000     0          
O        O      0.066266666667     0.132566666667     0.627500000000     0          
O        O      0.144500000000     0.188833333333     0.313900000000     0          
O        O      0.066333333333     0.132666666667     0.309700000000     0          
T        Si     0.110633333333     0.139933333333     0.437000000000     0          
T        Si     0.028133333333     0.140333333333     0.625000000000     0          
T        Si     0.112166666667     0.140400000000     0.313000000000     0          
T        Si     0.028766666667     0.141133333333     0.750000000000     0          
O        O      0.220033333333     0.319666666667     0.030000000000     0          
O        O      0.295333333333     0.038000000000     0.010700000000     0          
O        O      0.213333333333     0.001400000000     0.217900000000     0          
O        O      0.005566666667     0.124000000000     0.909600000000     0          
O        O      0.262433333333     0.070900000000     0.925000000000     0          
O        O      0.295333333333     0.147666666667     0.943900000000     0          
O        O      0.188533333333     0.043733333333     0.128400000000     0          
O        O      0.213900000000     0.329600000000     0.153900000000     0          
O        O      0.267033333333     0.066266666667     0.127500000000     0          
O        O      0.289000000000     0.144500000000     0.813900000000     0          
O        O      0.267000000000     0.066333333333     0.809700000000     0          
T        Si     0.304033333333     0.110633333333     0.937000000000     0          
T        Si     0.221133333333     0.028133333333     0.125000000000     0          
T        Si     0.305100000000     0.112166666667     0.813000000000     0          
T        Si     0.220966666667     0.028766666667     0.250000000000     0          
O        O      0.233700000000     0.220033333333     0.530000000000     0          
O        O      0.257333333333     0.295333333333     0.510700000000     0          
O        O      0.211933333333     0.213333333333     0.717900000000     0          
O        O      0.214900000000     0.005566666667     0.409600000000     0          
O        O      0.191533333333     0.262433333333     0.425000000000     0          
O        O      0.147666666667     0.295333333333     0.443900000000     0          
O        O      0.144800000000     0.188533333333     0.628400000000     0          
O        O      0.217633333333     0.213900000000     0.653900000000     0          
O        O      0.200766666667     0.267033333333     0.627500000000     0          
O        O      0.144500000000     0.289000000000     0.313900000000     0          
O        O      0.200666666667     0.267000000000     0.309700000000     0          
T        Si     0.193400000000     0.304033333333     0.437000000000     0          
T        Si     0.193000000000     0.221133333333     0.625000000000     0          
T        Si     0.192933333333     0.305100000000     0.313000000000     0          
T        Si     0.192200000000     0.220966666667     0.750000000000     0          
O        O      0.013666666667     0.233700000000     0.030000000000     0          
O        O      0.295333333333     0.257333333333     0.010700000000     0          
O        O      0.331933333333     0.211933333333     0.217900000000     0          
O        O      0.209333333333     0.214900000000     0.909600000000     0          
O        O      0.262433333333     0.191533333333     0.925000000000     0          
O        O      0.185666666667     0.147666666667     0.943900000000     0          
O        O      0.289600000000     0.144800000000     0.128400000000     0          
O        O      0.003733333333     0.217633333333     0.153900000000     0          
O        O      0.267066666667     0.200766666667     0.127500000000     0          
O        O      0.188833333333     0.144500000000     0.813900000000     0          
O        O      0.267000000000     0.200666666667     0.809700000000     0          
T        Si     0.222700000000     0.193400000000     0.937000000000     0          
T        Si     0.305200000000     0.193000000000     0.125000000000     0          
T        Si     0.221166666667     0.192933333333     0.813000000000     0          
T        Si     0.304566666667     0.192200000000     0.250000000000     0          
O        O      0.113300000000     0.013666666667     0.530000000000     0          
O        O      0.038000000000     0.295333333333     0.510700000000     0          
O        O      0.120000000000     0.331933333333     0.717900000000     0          
O        O      0.327766666667     0.209333333333     0.409600000000     0          
O        O      0.070900000000     0.262433333333     0.425000000000     0          
O        O      0.038000000000     0.185666666667     0.443900000000     0          
O        O      0.144800000000     0.289600000000     0.628400000000     0          
O        O      0.119433333333     0.003733333333     0.653900000000     0          
O        O      0.066300000000     0.267066666667     0.627500000000     0          
O        O      0.044333333333     0.188833333333     0.313900000000     0          
O        O      0.066333333333     0.267000000000     0.309700000000     0          
T        Si     0.029300000000     0.222700000000     0.437000000000     0          
T        Si     0.112200000000     0.305200000000     0.625000000000     0          
T        Si     0.028233333333     0.221166666667     0.313000000000     0          
T        Si     0.112366666667     0.304566666667     0.750000000000     0          
O        O      0.099633333333     0.113300000000     0.030000000000     0          
O        O      0.076000000000     0.038000000000     0.010700000000     0          
O        O      0.121400000000     0.120000000000     0.217900000000     0          
O        O      0.118433333333     0.327766666667     0.909600000000     0          
O        O      0.141800000000     0.070900000000     0.925000000000     0          
O        O      0.185666666667     0.038000000000     0.943900000000     0          
O        O      0.188533333333     0.144800000000     0.128400000000     0          
O        O      0.115700000000     0.119433333333     0.153900000000     0          
O        O      0.132566666667     0.066300000000     0.127500000000     0          
O        O      0.188833333333     0.044333333333     0.813900000000     0          
O        O      0.132666666667     0.066333333333     0.809700000000     0          
T        Si     0.139933333333     0.029300000000     0.937000000000     0          
T        Si     0.140333333333     0.112200000000     0.125000000000     0          
T        Si     0.140400000000     0.028233333333     0.813000000000     0          
T        Si     0.141133333333     0.112366666667     0.250000000000     0          
O        O      0.099633333333     0.319666666667     0.030000000000     0          
O        O      0.121400000000     0.001400000000     0.217900000000     0          
O        O      0.118433333333     0.124000000000     0.909600000000     0          
O        O      0.115700000000     0.329600000000     0.153900000000     0          
T        Si     0.139933333333     0.110633333333     0.937000000000     0          
T        Si     0.140333333333     0.028133333333     0.125000000000     0          
T        Si     0.140400000000     0.112166666667     0.813000000000     0          
T        Si     0.081666666667     0.000000000000     0.000000000000     0          
O        O      0.113300000000     0.099633333333     0.530000000000     0          
O        O      0.120000000000     0.121400000000     0.717900000000     0          
O        O      0.327766666667     0.118433333333     0.409600000000     0          
O        O      0.119433333333     0.115700000000     0.653900000000     0          
T        Si     0.029300000000     0.139933333333     0.437000000000     0          
T        Si     0.112200000000     0.140333333333     0.625000000000     0          
T        Si     0.028233333333     0.140400000000     0.313000000000     0          
T        Si     0.081666666667     0.081666666667     0.500000000000     0          
O        O      0.013666666667     0.113300000000     0.030000000000     0          
O        O      0.331933333333     0.120000000000     0.217900000000     0          
O        O      0.209333333333     0.327766666667     0.909600000000     0          
O        O      0.003733333333     0.119433333333     0.153900000000     0          
T        Si     0.222700000000     0.029300000000     0.937000000000     0          
T        Si     0.305200000000     0.112200000000     0.125000000000     0          
T        Si     0.221166666667     0.028233333333     0.813000000000     0          
T        Si     0.000000000000     0.081666666667     0.000000000000     0          
O        O      0.233700000000     0.013666666667     0.530000000000     0          
O        O      0.211933333333     0.331933333333     0.717900000000     0          
O        O      0.214900000000     0.209333333333     0.409600000000     0          
O        O      0.217633333333     0.003733333333     0.653900000000     0          
T        Si     0.193400000000     0.222700000000     0.437000000000     0          
T        Si     0.193000000000     0.305200000000     0.625000000000     0          
T        Si     0.192933333333     0.221166666667     0.313000000000     0          
T        Si     0.251666666667     0.000000000000     0.500000000000     0          
O        O      0.220033333333     0.233700000000     0.030000000000     0          
O        O      0.213333333333     0.211933333333     0.217900000000     0          
O        O      0.005566666667     0.214900000000     0.909600000000     0          
O        O      0.213900000000     0.217633333333     0.153900000000     0          
T        Si     0.304033333333     0.193400000000     0.937000000000     0          
T        Si     0.221133333333     0.193000000000     0.125000000000     0          
T        Si     0.305100000000     0.192933333333     0.813000000000     0          
T        Si     0.251666666667     0.251666666667     0.000000000000     0          
O        O      0.319666666667     0.220033333333     0.530000000000     0          
O        O      0.001400000000     0.213333333333     0.717900000000     0          
O        O      0.124000000000     0.005566666667     0.409600000000     0          
O        O      0.329600000000     0.213900000000     0.653900000000     0          
T        Si     0.110633333333     0.304033333333     0.437000000000     0          
T        Si     0.028133333333     0.221133333333     0.625000000000     0          
T        Si     0.112166666667     0.305100000000     0.313000000000     0          
T        Si     0.000000000000     0.251666666667     0.500000000000     0          
O        O      0.013666666667     0.233700000000     0.470000000000     0          
O        O      0.331933333333     0.211933333333     0.282100000000     0          
O        O      0.209333333333     0.214900000000     0.590400000000     0          
O        O      0.003733333333     0.217633333333     0.346100000000     0          
T        Si     0.222700000000     0.193400000000     0.563000000000     0          
T        Si     0.305200000000     0.193000000000     0.375000000000     0          
T        Si     0.221166666667     0.192933333333     0.687000000000     0          
O        O      0.113300000000     0.013666666667     0.970000000000     0          
O        O      0.120000000000     0.331933333333     0.782100000000     0          
O        O      0.327766666667     0.209333333333     0.090400000000     0          
O        O      0.119433333333     0.003733333333     0.846100000000     0          
T        Si     0.029300000000     0.222700000000     0.063000000000     0          
T        Si     0.112200000000     0.305200000000     0.875000000000     0          
T        Si     0.028233333333     0.221166666667     0.187000000000     0          
O        O      0.099633333333     0.113300000000     0.470000000000     0          
O        O      0.121400000000     0.120000000000     0.282100000000     0          
O        O      0.118433333333     0.327766666667     0.590400000000     0          
O        O      0.115700000000     0.119433333333     0.346100000000     0          
T        Si     0.139933333333     0.029300000000     0.563000000000     0          
T        Si     0.140333333333     0.112200000000     0.375000000000     0          
T        Si     0.140400000000     0.028233333333     0.687000000000     0          
O        O      0.319666666667     0.099633333333     0.970000000000     0          
O        O      0.001400000000     0.121400000000     0.782100000000     0          
O        O      0.124000000000     0.118433333333     0.090400000000     0          
O        O      0.329600000000     0.115700000000     0.846100000000     0          
T        Si     0.110633333333     0.139933333333     0.063000000000     0          
T        Si     0.028133333333     0.140333333333     0.875000000000     0          
T        Si     0.112166666667     0.140400000000     0.187000000000     0          
O        O      0.220033333333     0.319666666667     0.470000000000     0          
O        O      0.213333333333     0.001400000000     0.282100000000     0          
O        O      0.005566666667     0.124000000000     0.590400000000     0          
O        O      0.213900000000     0.329600000000     0.346100000000     0          
T        Si     0.304033333333     0.110633333333     0.563000000000     0          
T        Si     0.221133333333     0.028133333333     0.375000000000     0          
T        Si     0.305100000000     0.112166666667     0.687000000000     0          
O        O      0.233700000000     0.220033333333     0.970000000000     0          
O        O      0.211933333333     0.213333333333     0.782100000000     0          
O        O      0.214900000000     0.005566666667     0.090400000000     0          
O        O      0.217633333333     0.213900000000     0.846100000000     0          
T        Si     0.193400000000     0.304033333333     0.063000000000     0          
T        Si     0.193000000000     0.221133333333     0.875000000000     0          
T        Si     0.192933333333     0.305100000000     0.187000000000     0          
O        O      0.233700000000     0.347000000000     0.970000000000     0          
O        O      0.257333333333     0.628666666667     0.989300000000     0          
O        O      0.143466666667     0.620233333333     0.750000000000     0          
O        O      0.211933333333     0.665266666667     0.782100000000     0          
O        O      0.202033333333     0.601033333333     0.750000000000     0          
O        O      0.214900000000     0.542666666667     0.090400000000     0          
O        O      0.191533333333     0.595766666667     0.075000000000     0          
O        O      0.147666666667     0.519000000000     0.056100000000     0          
O        O      0.144800000000     0.622933333333     0.871600000000     0          
O        O      0.217633333333     0.337066666667     0.846100000000     0          
O        O      0.200766666667     0.600400000000     0.872500000000     0          
O        O      0.144500000000     0.522166666667     0.186100000000     0          
O        O      0.200666666667     0.600333333333     0.190300000000     0          
T        Si     0.193400000000     0.556033333333     0.063000000000     0          
T        Si     0.193000000000     0.638533333333     0.875000000000     0          
T        Si     0.192933333333     0.554500000000     0.187000000000     0          
T        Si     0.192200000000     0.637900000000     0.750000000000     0          
T        Si     0.251666666667     0.333333333333     0.000000000000     0          
O        O      0.220033333333     0.567033333333     0.470000000000     0          
O        O      0.295333333333     0.590666666667     0.489300000000     0          
O        O      0.189900000000     0.476800000000     0.250000000000     0          
O        O      0.213333333333     0.545266666667     0.282100000000     0          
O        O      0.267666666667     0.535366666667     0.250000000000     0          
O        O      0.005566666667     0.548233333333     0.590400000000     0          
O        O      0.262433333333     0.524866666667     0.575000000000     0          
O        O      0.295333333333     0.481000000000     0.556100000000     0          
O        O      0.188533333333     0.478133333333     0.371600000000     0          
O        O      0.213900000000     0.550966666667     0.346100000000     0          
O        O      0.267033333333     0.534100000000     0.372500000000     0          
O        O      0.289000000000     0.477833333333     0.686100000000     0          
O        O      0.267000000000     0.534000000000     0.690300000000     0          
T        Si     0.304033333333     0.526733333333     0.563000000000     0          
T        Si     0.221133333333     0.526333333333     0.375000000000     0          
T        Si     0.305100000000     0.526266666667     0.687000000000     0          
T        Si     0.220966666667     0.525533333333     0.250000000000     0          
T        Si     0.251666666667     0.585000000000     0.500000000000     0          
O        O      0.319666666667     0.553366666667     0.970000000000     0          
O        O      0.038000000000     0.628666666667     0.989300000000     0          
O        O      0.046433333333     0.523233333333     0.750000000000     0          
O        O      0.001400000000     0.546666666667     0.782100000000     0          
O        O      0.065633333333     0.601000000000     0.750000000000     0          
O        O      0.124000000000     0.338900000000     0.090400000000     0          
O        O      0.070900000000     0.595766666667     0.075000000000     0          
O        O      0.147666666667     0.628666666667     0.056100000000     0          
O        O      0.043733333333     0.521866666667     0.871600000000     0          
O        O      0.329600000000     0.547233333333     0.846100000000     0          
O        O      0.066266666667     0.600366666667     0.872500000000     0          
O        O      0.144500000000     0.622333333333     0.186100000000     0          
O        O      0.066333333333     0.600333333333     0.190300000000     0          
T        Si     0.110633333333     0.637366666667     0.063000000000     0          
T        Si     0.028133333333     0.554466666667     0.875000000000     0          
T        Si     0.112166666667     0.638433333333     0.187000000000     0          
T        Si     0.028766666667     0.554300000000     0.750000000000     0          
T        Si     0.000000000000     0.585000000000     0.000000000000     0          
O        O      0.099633333333     0.653000000000     0.470000000000     0          
O        O      0.076000000000     0.371333333333     0.489300000000     0          
O        O      0.189866666667     0.379766666667     0.250000000000     0          
O        O      0.121400000000     0.334733333333     0.282100000000     0          
O        O      0.131300000000     0.398966666667     0.250000000000     0          
O        O      0.118433333333     0.457333333333     0.590400000000     0          
O        O      0.141800000000     0.404233333333     0.575000000000     0          
O        O      0.185666666667     0.481000000000     0.556100000000     0          
O        O      0.188533333333     0.377066666667     0.371600000000     0          
O        O      0.115700000000     0.662933333333     0.346100000000     0          
O        O      0.132566666667     0.399600000000     0.372500000000     0          
O        O      0.188833333333     0.477833333333     0.686100000000     0          
O        O      0.132666666667     0.399666666667     0.690300000000     0          
T        Si     0.139933333333     0.443966666667     0.563000000000     0          
T        Si     0.140333333333     0.361466666667     0.375000000000     0          
T        Si     0.140400000000     0.445500000000     0.687000000000     0          
T        Si     0.141133333333     0.362100000000     0.250000000000     0          
T        Si     0.081666666667     0.333333333333     0.500000000000     0          
O        O      0.113300000000     0.432966666667     0.970000000000     0          
O        O      0.038000000000     0.409333333333     0.989300000000     0          
O        O      0.143433333333     0.523200000000     0.750000000000     0          
O        O      0.120000000000     0.454733333333     0.782100000000     0          
O        O      0.065666666667     0.464633333333     0.750000000000     0          
O        O      0.327766666667     0.451766666667     0.090400000000     0          
O        O      0.070900000000     0.475133333333     0.075000000000     0          
O        O      0.038000000000     0.519000000000     0.056100000000     0          
O        O      0.144800000000     0.521866666667     0.871600000000     0          
O        O      0.119433333333     0.449033333333     0.846100000000     0          
O        O      0.066300000000     0.465900000000     0.872500000000     0          
O        O      0.044333333333     0.522166666667     0.186100000000     0          
O        O      0.066333333333     0.466000000000     0.190300000000     0          
T        Si     0.029300000000     0.473266666667     0.063000000000     0          
T        Si     0.112200000000     0.473666666667     0.875000000000     0          
T        Si     0.028233333333     0.473733333333     0.187000000000     0          
T        Si     0.112366666667     0.474466666667     0.750000000000     0          
T        Si     0.081666666667     0.415000000000     0.000000000000     0          
O        O      0.013666666667     0.446633333333     0.470000000000     0          
O        O      0.295333333333     0.371333333333     0.489300000000     0          
O        O      0.286900000000     0.476766666667     0.250000000000     0          
O        O      0.331933333333     0.453333333333     0.282100000000     0          
O        O      0.267700000000     0.399000000000     0.250000000000     0          
O        O      0.209333333333     0.661100000000     0.590400000000     0          
O        O      0.262433333333     0.404233333333     0.575000000000     0          
O        O      0.185666666667     0.371333333333     0.556100000000     0          
O        O      0.289600000000     0.478133333333     0.371600000000     0          
O        O      0.003733333333     0.452766666667     0.346100000000     0          
O        O      0.267066666667     0.399633333333     0.372500000000     0          
O        O      0.188833333333     0.377666666667     0.686100000000     0          
O        O      0.267000000000     0.399666666667     0.690300000000     0          
T        Si     0.222700000000     0.362633333333     0.563000000000     0          
T        Si     0.305200000000     0.445533333333     0.375000000000     0          
T        Si     0.221166666667     0.361566666667     0.687000000000     0          
T        Si     0.304566666667     0.445700000000     0.250000000000     0          
T        Si     0.000000000000     0.415000000000     0.500000000000     0          
O        O      0.319666666667     0.432966666667     0.530000000000     0          
O        O      0.038000000000     0.409333333333     0.510700000000     0          
O        O      0.001400000000     0.454733333333     0.717900000000     0          
O        O      0.124000000000     0.451766666667     0.409600000000     0          
O        O      0.070900000000     0.475133333333     0.425000000000     0          
O        O      0.147666666667     0.519000000000     0.443900000000     0          
O        O      0.043733333333     0.521866666667     0.628400000000     0          
O        O      0.329600000000     0.449033333333     0.653900000000     0          
O        O      0.066266666667     0.465900000000     0.627500000000     0          
O        O      0.144500000000     0.522166666667     0.313900000000     0          
O        O      0.066333333333     0.466000000000     0.309700000000     0          
T        Si     0.110633333333     0.473266666667     0.437000000000     0          
T        Si     0.028133333333     0.473666666667     0.625000000000     0          
T        Si     0.112166666667     0.473733333333     0.313000000000     0          
T        Si     0.028766666667     0.474466666667     0.750000000000     0          
O        O      0.220033333333     0.653000000000     0.030000000000     0          
O        O      0.295333333333     0.371333333333     0.010700000000     0          
O        O      0.213333333333     0.334733333333     0.217900000000     0          
O        O      0.005566666667     0.457333333333     0.909600000000     0          
O        O      0.262433333333     0.404233333333     0.925000000000     0          
O        O      0.295333333333     0.481000000000     0.943900000000     0          
O        O      0.188533333333     0.377066666667     0.128400000000     0          
O        O      0.213900000000     0.662933333333     0.153900000000     0          
O        O      0.267033333333     0.399600000000     0.127500000000     0          
O        O      0.289000000000     0.477833333333     0.813900000000     0          
O        O      0.267000000000     0.399666666667     0.809700000000     0          
T        Si     0.304033333333     0.443966666667     0.937000000000     0          
T        Si     0.221133333333     0.361466666667     0.125000000000     0          
T        Si     0.305100000000     0.445500000000     0.813000000000     0          
T        Si     0.220966666667     0.362100000000     0.250000000000     0          
O        O      0.233700000000     0.553366666667     0.530000000000     0          
O        O      0.257333333333     0.628666666667     0.510700000000     0          
O        O      0.211933333333     0.546666666667     0.717900000000     0          
O        O      0.214900000000     0.338900000000     0.409600000000     0          
O        O      0.191533333333     0.595766666667     0.425000000000     0          
O        O      0.147666666667     0.628666666667     0.443900000000     0          
O        O      0.144800000000     0.521866666667     0.628400000000     0          
O        O      0.217633333333     0.547233333333     0.653900000000     0          
O        O      0.200766666667     0.600366666667     0.627500000000     0          
O        O      0.144500000000     0.622333333333     0.313900000000     0          
O        O      0.200666666667     0.600333333333     0.309700000000     0          
T        Si     0.193400000000     0.637366666667     0.437000000000     0          
T        Si     0.193000000000     0.554466666667     0.625000000000     0          
T        Si     0.192933333333     0.638433333333     0.313000000000     0          
T        Si     0.192200000000     0.554300000000     0.750000000000     0          
O        O      0.013666666667     0.567033333333     0.030000000000     0          
O        O      0.295333333333     0.590666666667     0.010700000000     0          
O        O      0.331933333333     0.545266666667     0.217900000000     0          
O        O      0.209333333333     0.548233333333     0.909600000000     0          
O        O      0.262433333333     0.524866666667     0.925000000000     0          
O        O      0.185666666667     0.481000000000     0.943900000000     0          
O        O      0.289600000000     0.478133333333     0.128400000000     0          
O        O      0.003733333333     0.550966666667     0.153900000000     0          
O        O      0.267066666667     0.534100000000     0.127500000000     0          
O        O      0.188833333333     0.477833333333     0.813900000000     0          
O        O      0.267000000000     0.534000000000     0.809700000000     0          
T        Si     0.222700000000     0.526733333333     0.937000000000     0          
T        Si     0.305200000000     0.526333333333     0.125000000000     0          
T        Si     0.221166666667     0.526266666667     0.813000000000     0          
T        Si     0.304566666667     0.525533333333     0.250000000000     0          
O        O      0.113300000000     0.347000000000     0.530000000000     0          
O        O      0.038000000000     0.628666666667     0.510700000000     0          
O        O      0.120000000000     0.665266666667     0.717900000000     0          
O        O      0.327766666667     0.542666666667     0.409600000000     0          
O        O      0.070900000000     0.595766666667     0.425000000000     0          
O        O      0.038000000000     0.519000000000     0.443900000000     0          
O        O      0.144800000000     0.622933333333     0.628400000000     0          
O        O      0.119433333333     0.337066666667     0.653900000000     0          
O        O      0.066300000000     0.600400000000     0.627500000000     0          
O        O      0.044333333333     0.522166666667     0.313900000000     0          
O        O      0.066333333333     0.600333333333     0.309700000000     0          
T        Si     0.029300000000     0.556033333333     0.437000000000     0          
T        Si     0.112200000000     0.638533333333     0.625000000000     0          
T        Si     0.028233333333     0.554500000000     0.313000000000     0          
T        Si     0.112366666667     0.637900000000     0.750000000000     0          
O        O      0.099633333333     0.446633333333     0.030000000000     0          
O        O      0.076000000000     0.371333333333     0.010700000000     0          
O        O      0.121400000000     0.453333333333     0.217900000000     0          
O        O      0.118433333333     0.661100000000     0.909600000000     0          
O        O      0.141800000000     0.404233333333     0.925000000000     0          
O        O      0.185666666667     0.371333333333     0.943900000000     0          
O        O      0.188533333333     0.478133333333     0.128400000000     0          
O        O      0.115700000000     0.452766666667     0.153900000000     0          
O        O      0.132566666667     0.399633333333     0.127500000000     0          
O        O      0.188833333333     0.377666666667     0.813900000000     0          
O        O      0.132666666667     0.399666666667     0.809700000000     0          
T        Si     0.139933333333     0.362633333333     0.937000000000     0          
T        Si     0.140333333333     0.445533333333     0.125000000000     0          
T        Si     0.140400000000     0.361566666667     0.813000000000     0          
T        Si     0.141133333333     0.445700000000     0.250000000000     0          
O        O      0.099633333333     0.653000000000     0.030000000000     0          
O        O      0.121400000000     0.334733333333     0.217900000000     0          
O        O      0.118433333333     0.457333333333     0.909600000000     0          
O        O      0.115700000000     0.662933333333     0.153900000000     0          
T        Si     0.139933333333     0.443966666667     0.937000000000     0          
T        Si     0.140333333333     0.361466666667     0.125000000000     0          
T        Si     0.140400000000     0.445500000000     0.813000000000     0          
T        Si     0.081666666667     0.333333333333     0.000000000000     0          
O        O      0.113300000000     0.432966666667     0.530000000000     0          
O        O      0.120000000000     0.454733333333     0.717900000000     0          
O        O      0.327766666667     0.451766666667     0.409600000000     0          
O        O      0.119433333333     0.449033333333     0.653900000000     0          
T        Si     0.029300000000     0.473266666667     0.437000000000     0          
T        Si     0.112200000000     0.473666666667     0.625000000000     0          
T        Si     0.028233333333     0.473733333333     0.313000000000     0          
T        Si     0.081666666667     0.415000000000     0.500000000000     0          
O        O      0.013666666667     0.446633333333     0.030000000000     0          
O        O      0.331933333333     0.453333333333     0.217900000000     0          
O        O      0.209333333333     0.661100000000     0.909600000000     0          
O        O      0.003733333333     0.452766666667     0.153900000000     0          
T        Si     0.222700000000     0.362633333333     0.937000000000     0          
T        Si     0.305200000000     0.445533333333     0.125000000000     0          
T        Si     0.221166666667     0.361566666667     0.813000000000     0          
T        Si     0.000000000000     0.415000000000     0.000000000000     0          
O        O      0.233700000000     0.347000000000     0.530000000000     0          
O        O      0.211933333333     0.665266666667     0.717900000000     0          
O        O      0.214900000000     0.542666666667     0.409600000000     0          
O        O      0.217633333333     0.337066666667     0.653900000000     0          
T        Si     0.193400000000     0.556033333333     0.437000000000     0          
T        Si     0.193000000000     0.638533333333     0.625000000000     0          
T        Si     0.192933333333     0.554500000000     0.313000000000     0          
T        Si     0.251666666667     0.333333333333     0.500000000000     0          
O        O      0.220033333333     0.567033333333     0.030000000000     0          
O        O      0.213333333333     0.545266666667     0.217900000000     0          
O        O      0.005566666667     0.548233333333     0.909600000000     0          
O        O      0.213900000000     0.550966666667     0.153900000000     0          
T        Si     0.304033333333     0.526733333333     0.937000000000     0          
T        Si     0.221133333333     0.526333333333     0.125000000000     0          
T        Si     0.305100000000     0.526266666667     0.813000000000     0          
T        Si     0.251666666667     0.585000000000     0.000000000000     0          
O        O      0.319666666667     0.553366666667     0.530000000000     0          
O        O      0.001400000000     0.546666666667     0.717900000000     0          
O        O      0.124000000000     0.338900000000     0.409600000000     0          
O        O      0.329600000000     0.547233333333     0.653900000000     0          
T        Si     0.110633333333     0.637366666667     0.437000000000     0          
T        Si     0.028133333333     0.554466666667     0.625000000000     0          
T        Si     0.112166666667     0.638433333333     0.313000000000     0          
T        Si     0.000000000000     0.585000000000     0.500000000000     0          
O        O      0.013666666667     0.567033333333     0.470000000000     0          
O        O      0.331933333333     0.545266666667     0.282100000000     0          
O        O      0.209333333333     0.548233333333     0.590400000000     0          
O        O      0.003733333333     0.550966666667     0.346100000000     0          
T        Si     0.222700000000     0.526733333333     0.563000000000     0          
T        Si     0.305200000000     0.526333333333     0.375000000000     0          
T        Si     0.221166666667     0.526266666667     0.687000000000     0          
O        O      0.113300000000     0.347000000000     0.970000000000     0          
O        O      0.120000000000     0.665266666667     0.782100000000     0          
O        O      0.327766666667     0.542666666667     0.090400000000     0          
O        O      0.119433333333     0.337066666667     0.846100000000     0          
T        Si     0.029300000000     0.556033333333     0.063000000000     0          
T        Si     0.112200000000     0.638533333333     0.875000000000     0          
T        Si     0.028233333333     0.554500000000     0.187000000000     0          
O        O      0.099633333333     0.446633333333     0.470000000000     0          
O        O      0.121400000000     0.453333333333     0.282100000000     0          
O        O      0.118433333333     0.661100000000     0.590400000000     0          
O        O      0.115700000000     0.452766666667     0.346100000000     0          
T        Si     0.139933333333     0.362633333333     0.563000000000     0          
T        Si     0.140333333333     0.445533333333     0.375000000000     0          
T        Si     0.140400000000     0.361566666667     0.687000000000     0          
O        O      0.319666666667     0.432966666667     0.970000000000     0          
O        O      0.001400000000     0.454733333333     0.782100000000     0          
O        O      0.124000000000     0.451766666667     0.090400000000     0          
O        O      0.329600000000     0.449033333333     0.846100000000     0          
T        Si     0.110633333333     0.473266666667     0.063000000000     0          
T        Si     0.028133333333     0.473666666667     0.875000000000     0          
T        Si     0.112166666667     0.473733333333     0.187000000000     0          
O        O      0.220033333333     0.653000000000     0.470000000000     0          
O        O      0.213333333333     0.334733333333     0.282100000000     0          
O        O      0.005566666667     0.457333333333     0.590400000000     0          
O        O      0.213900000000     0.662933333333     0.346100000000     0          
T        Si     0.304033333333     0.443966666667     0.563000000000     0          
T        Si     0.221133333333     0.361466666667     0.375000000000     0          
T        Si     0.305100000000     0.445500000000     0.687000000000     0          
O        O      0.233700000000     0.553366666667     0.970000000000     0          
O        O      0.211933333333     0.546666666667     0.782100000000     0          
O        O      0.214900000000     0.338900000000     0.090400000000     0          
O        O      0.217633333333     0.547233333333     0.846100000000     0          
T        Si     0.193400000000     0.637366666667     0.063000000000     0          
T        Si     0.193000000000     0.554466666667     0.875000000000     0          
T        Si     0.192933333333     0.638433333333     0.187000000000     0          
O        O      0.233700000000     0.680333333333     0.970000000000     0          
O        O      0.257333333333     0.962000000000     0.989300000000     0          
O        O      0.143466666667     0.953566666667     0.750000000000     0          
O        O      0.211933333333     0.998600000000     0.782100000000     0          
O        O      0.202033333333     0.934366666667     0.750000000000     0          
O        O      0.214900000000     0.876000000000     0.090400000000     0          
O        O      0.191533333333     0.929100000000     0.075000000000     0          
O        O      0.147666666667     0.852333333333     0.056100000000     0          
O        O      0.144800000000     0.956266666667     0.871600000000     0          
O        O      0.217633333333     0.670400000000     0.846100000000     0          
O        O      0.200766666667     0.933733333333     0.872500000000     0          
O        O      0.144500000000     0.855500000000     0.186100000000     0          
O        O      0.200666666667     0.933666666667     0.190300000000     0          
T        Si     0.193400000000     0.889366666667     0.063000000000     0          
T        Si     0.193000000000     0.971866666667     0.875000000000     0          
T        Si     0.192933333333     0.887833333333     0.187000000000     0          
T        Si     0.192200000000     0.971233333333     0.750000000000     0          
T        Si     0.251666666667     0.666666666667     0.000000000000     0          
O        O      0.220033333333     0.900366666667     0.470000000000     0          
O        O      0.295333333333     0.924000000000     0.489300000000     0          
O        O      0.189900000000     0.810133333333     0.250000000000     0          
O        O      0.213333333333     0.878600000000     0.282100000000     0          
O        O      0.267666666667     0.868700000000     0.250000000000     0          
O        O      0.005566666667     0.881566666667     0.590400000000     0          
O        O      0.262433333333     0.858200000000     0.575000000000     0          
O        O      0.295333333333     0.814333333333     0.556100000000     0          
O        O      0.188533333333     0.811466666667     0.371600000000     0          
O        O      0.213900000000     0.884300000000     0.346100000000     0          
O        O      0.267033333333     0.867433333333     0.372500000000     0          
O        O      0.289000000000     0.811166666667     0.686100000000     0          
O        O      0.267000000000     0.867333333333     0.690300000000     0          
T        Si     0.304033333333     0.860066666667     0.563000000000     0          
T        Si     0.221133333333     0.859666666667     0.375000000000     0          
T        Si     0.305100000000     0.859600000000     0.687000000000     0          
T        Si     0.220966666667     0.858866666667     0.250000000000     0          
T        Si     0.251666666667     0.918333333333     0.500000000000     0          
O        O      0.319666666667     0.886700000000     0.970000000000     0          
O        O      0.038000000000     0.962000000000     0.989300000000     0          
O        O      0.046433333333     0.856566666667     0.750000000000     0          
O        O      0.001400000000     0.880000000000     0.782100000000     0          
O        O      0.065633333333     0.934333333333     0.750000000000     0          
O        O      0.124000000000     0.672233333333     0.090400000000     0          
O        O      0.070900000000     0.929100000000     0.075000000000     0          
O        O      0.147666666667     0.962000000000     0.056100000000     0          
O        O      0.043733333333     0.855200000000     0.871600000000     0          
O        O      0.329600000000     0.880566666667     0.846100000000     0          
O        O      0.066266666667     0.933700000000     0.872500000000     0          
O        O      0.144500000000     0.955666666667     0.186100000000     0          
O        O      0.066333333333     0.933666666667     0.190300000000     0          
T        Si     0.110633333333     0.970700000000     0.063000000000     0          
T        Si     0.028133333333     0.887800000000     0.875000000000     0          
T        Si     0.112166666667     0.971766666667     0.187000000000     0          
T        Si     0.028766666667     0.887633333333     0.750000000000     0          
T        Si     0.000000000000     0.918333333333     0.000000000000     0          
O        O      0.099633333333     0.986333333333     0.470000000000     0          
O        O      0.076000000000     0.704666666667     0.489300000000     0          
O        O      0.189866666667     0.713100000000     0.250000000000     0          
O        O      0.121400000000     0.668066666667     0.282100000000     0          
O        O      0.131300000000     0.732300000000     0.250000000000     0          
O        O      0.118433333333     0.790666666667     0.590400000000     0          
O        O      0.141800000000     0.737566666667     0.575000000000     0          
O        O      0.185666666667     0.814333333333     0.556100000000     0          
O        O      0.188533333333     0.710400000000     0.371600000000     0          
O        O      0.115700000000     0.996266666667     0.346100000000     0          
O        O      0.132566666667     0.732933333333     0.372500000000     0          
O        O      0.188833333333     0.811166666667     0.686100000000     0          
O        O      0.132666666667     0.733000000000     0.690300000000     0          
T        Si     0.139933333333     0.777300000000     0.563000000000     0          
T        Si     0.140333333333     0.694800000000     0.375000000000     0          
T        Si     0.140400000000     0.778833333333     0.687000000000     0          
T        Si     0.141133333333     0.695433333333     0.250000000000     0          
T        Si     0.081666666667     0.666666666667     0.500000000000     0          
O        O      0.113300000000     0.766300000000     0.970000000000     0          
O        O      0.038000000000     0.742666666667     0.989300000000     0          
O        O      0.143433333333     0.856533333333     0.750000000000     0          
O        O      0.120000000000     0.788066666667     0.782100000000     0          
O        O      0.065666666667     0.797966666667     0.750000000000     0          
O        O      0.327766666667     0.785100000000     0.090400000000     0          
O        O      0.070900000000     0.808466666667     0.075000000000     0          
O        O      0.038000000000     0.852333333333     0.056100000000     0          
O        O      0.144800000000     0.855200000000     0.871600000000     0          
O        O      0.119433333333     0.782366666667     0.846100000000     0          
O        O      0.066300000000     0.799233333333     0.872500000000     0          
O        O      0.044333333333     0.855500000000     0.186100000000     0          
O        O      0.066333333333     0.799333333333     0.190300000000     0          
T        Si     0.029300000000     0.806600000000     0.063000000000     0          
T        Si     0.112200000000     0.807000000000     0.875000000000     0          
T        Si     0.028233333333     0.807066666667     0.187000000000     0          
T        Si     0.112366666667     0.807800000000     0.750000000000     0          
T        Si     0.081666666667     0.748333333333     0.000000000000     0          
O        O      0.013666666667     0.779966666667     0.470000000000     0          
O        O      0.295333333333     0.704666666667     0.489300000000     0          
O        O      0.286900000000     0.810100000000     0.250000000000     0          
O        O      0.331933333333     0.786666666667     0.282100000000     0          
O        O      0.267700000000     0.732333333333     0.250000000000     0          
O        O      0.209333333333     0.994433333333     0.590400000000     0          
O        O      0.262433333333     0.737566666667     0.575000000000     0          
O        O      0.185666666667     0.704666666667     0.556100000000     0          
O        O      0.289600000000     0.811466666667     0.371600000000     0          
O        O      0.003733333333     0.786100000000     0.346100000000     0          
O        O      0.267066666667     0.732966666667     0.372500000000     0          
O        O      0.188833333333     0.711000000000     0.686100000000     0          
O        O      0.267000000000     0.733000000000     0.690300000000     0          
T        Si     0.222700000000     0.695966666667     0.563000000000     0          
T        Si     0.305200000000     0.778866666667     0.375000000000     0          
T        Si     0.221166666667     0.694900000000     0.687000000000     0          
T        Si     0.304566666667     0.779033333333     0.250000000000     0          
T        Si     0.000000000000     0.748333333333     0.500000000000     0          
O        O      0.319666666667     0.766300000000     0.530000000000     0          
O        O      0.038000000000     0.742666666667     0.510700000000     0          
O        O      0.001400000000     0.788066666667     0.717900000000     0          
O        O      0.124000000000     0.785100000000     0.409600000000     0          
O        O      0.070900000000     0.808466666667     0.425000000000     0          
O        O      0.147666666667     0.852333333333     0.443900000000     0          
O        O      0.043733333333     0.855200000000     0.628400000000     0          
O        O      0.329600000000     0.782366666667     0.653900000000     0          
O        O      0.066266666667     0.799233333333     0.627500000000     0          
O        O      0.144500000000     0.855500000000     0.313900000000     0          
O        O      0.066333333333     0.799333333333     0.309700000000     0          
T        Si     0.110633333333     0.806600000000     0.437000000000     0          
T        Si     0.028133333333     0.807000000000     0.625000000000     0          
T        Si     0.112166666667     0.807066666667     0.313000000000     0          
T        Si     0.028766666667     0.807800000000     0.750000000000     0          
O        O      0.220033333333     0.986333333333     0.030000000000     0          
O        O      0.295333333333     0.704666666667     0.010700000000     0          
O        O      0.213333333333     0.668066666667     0.217900000000     0          
O        O      0.005566666667     0.790666666667     0.909600000000     0          
O        O      0.262433333333     0.737566666667     0.925000000000     0          
O        O      0.295333333333     0.814333333333     0.943900000000     0          
O        O      0.188533333333     0.710400000000     0.128400000000     0          
O        O      0.213900000000     0.996266666667     0.153900000000     0          
O        O      0.267033333333     0.732933333333     0.127500000000     0          
O        O      0.289000000000     0.811166666667     0.813900000000     0          
O        O      0.267000000000     0.733000000000     0.809700000000     0          
T        Si     0.304033333333     0.777300000000     0.937000000000     0          
T        Si     0.221133333333     0.694800000000     0.125000000000     0          
T        Si     0.305100000000     0.778833333333     0.813000000000     0          
T        Si     0.220966666667     0.695433333333     0.250000000000     0          
O        O      0.233700000000     0.886700000000     0.530000000000     0          
O        O      0.257333333333     0.962000000000     0.510700000000     0          
O        O      0.211933333333     0.880000000000     0.717900000000     0          
O        O      0.214900000000     0.672233333333     0.409600000000     0          
O        O      0.191533333333     0.929100000000     0.425000000000     0          
O        O      0.147666666667     0.962000000000     0.443900000000     0          
O        O      0.144800000000     0.855200000000     0.628400000000     0          
O        O      0.217633333333     0.880566666667     0.653900000000     0          
O        O      0.200766666667     0.933700000000     0.627500000000     0          
O        O      0.144500000000     0.955666666667     0.313900000000     0          
O        O      0.200666666667     0.933666666667     0.309700000000     0          
T        Si     0.193400000000     0.970700000000     0.437000000000     0          
T        Si     0.193000000000     0.887800000000     0.625000000000     0          
T        Si     0.192933333333     0.971766666667     0.313000000000     0          
T        Si     0.192200000000     0.887633333333     0.750000000000     0          
O        O      0.013666666667     0.900366666667     0.030000000000     0          
O        O      0.295333333333     0.924000000000     0.010700000000     0          
O        O      0.331933333333     0.878600000000     0.217900000000     0          
O        O      0.209333333333     0.881566666667     0.909600000000     0          
O        O      0.262433333333     0.858200000000     0.925000000000     0          
O        O      0.185666666667     0.814333333333     0.943900000000     0          
O        O      0.289600000000     0.811466666667     0.128400000000     0          
O        O      0.003733333333     0.884300000000     0.153900000000     0          
O        O      0.267066666667     0.867433333333     0.127500000000     0          
O        O      0.188833333333     0.811166666667     0.813900000000     0          
O        O      0.267000000000     0.867333333333     0.809700000000     0          
T        Si     0.222700000000     0.860066666667     0.937000000000     0          
T        Si     0.305200000000     0.859666666667     0.125000000000     0          
T        Si     0.221166666667     0.859600000000     0.813000000000     0          
T        Si     0.304566666667     0.858866666667     0.250000000000     0          
O        O      0.113300000000     0.680333333333     0.530000000000     0          
O        O      0.038000000000     0.962000000000     0.510700000000     0          
O        O      0.120000000000     0.998600000000     0.717900000000     0          
O        O      0.327766666667     0.876000000000     0.409600000000     0          
O        O      0.070900000000     0.929100000000     0.425000000000     0          
O        O      0.038000000000     0.852333333333     0.443900000000     0          
O        O      0.144800000000     0.956266666667     0.628400000000     0          
O        O      0.119433333333     0.670400000000     0.653900000000     0          
O        O      0.066300000000     0.933733333333     0.627500000000     0          
O        O      0.044333333333     0.855500000000     0.313900000000     0          
O        O      0.066333333333     0.933666666667     0.309700000000     0          
T        Si     0.029300000000     0.889366666667     0.437000000000     0          
T        Si     0.112200000000     0.971866666667     0.625000000000     0          
T        Si     0.028233333333     0.887833333333     0.313000000000     0          
T        Si     0.112366666667     0.971233333333     0.750000000000     0          
O        O      0.099633333333     0.779966666667     0.030000000000     0          
O        O      0.076000000000     0.704666666667     0.010700000000     0          
O        O      0.121400000000     0.786666666667     0.217900000000     0          
O        O      0.118433333333     0.994433333333     0.909600000000     0          
O        O      0.141800000000     0.737566666667     0.925000000000     0          
O        O      0.185666666667     0.704666666667     0.943900000000     0          
O        O      0.188533333333     0.811466666667     0.128400000000     0          
O        O      0.115700000000     0.786100000000     0.153900000000     0          
O        O      0.132566666667     0.732966666667     0.127500000000     0          
O        O      0.188833333333     0.711000000000     0.813900000000     0          
O        O      0.132666666667     0.733000000000     0.809700000000     0          
T        Si     0.139933333333     0.695966666667     0.937000000000     0          
T        Si     0.140333333333     0.778866666667     0.125000000000     0          
T        Si     0.140400000000     0.694900000000     0.813000000000     0          
T        Si     0.141133333333     0.779033333333     0.250000000000     0          
O        O      0.099633333333     0.986333333333     0.030000000000     0          
O        O      0.121400000000     0.668066666667     0.217900000000     0          
O        O      0.118433333333     0.790666666667     0.909600000000     0          
O        O      0.115700000000     0.996266666667     0.153900000000     0          
T        Si     0.139933333333     0.777300000000     0.937000000000     0          
T        Si     0.140333333333     0.694800000000     0.125000000000     0          
T        Si     0.140400000000     0.778833333333     0.813000000000     0          
T        Si     0.081666666667     0.666666666667     0.000000000000     0          
O        O      0.113300000000     0.766300000000     0.530000000000     0          
O        O      0.120000000000     0.788066666667     0.717900000000     0          
O        O      0.327766666667     0.785100000000     0.409600000000     0          
O        O      0.119433333333     0.782366666667     0.653900000000     0          
T        Si     0.029300000000     0.806600000000     0.437000000000     0          
T        Si     0.112200000000     0.807000000000     0.625000000000     0          
T        Si     0.028233333333     0.807066666667     0.313000000000     0          
T        Si     0.081666666667     0.748333333333     0.500000000000     0          
O        O      0.013666666667     0.779966666667     0.030000000000     0          
O        O      0.331933333333     0.786666666667     0.217900000000     0          
O        O      0.209333333333     0.994433333333     0.909600000000     0          
O        O      0.003733333333     0.786100000000     0.153900000000     0          
T        Si     0.222700000000     0.695966666667     0.937000000000     0          
T        Si     0.305200000000     0.778866666667     0.125000000000     0          
T        Si     0.221166666667     0.694900000000     0.813000000000     0          
T        Si     0.000000000000     0.748333333333     0.000000000000     0          
O        O      0.233700000000     0.680333333333     0.530000000000     0          
O        O      0.211933333333     0.998600000000     0.717900000000     0          
O        O      0.214900000000     0.876000000000     0.409600000000     0          
O        O      0.217633333333     0.670400000000     0.653900000000     0          
T        Si     0.193400000000     0.889366666667     0.437000000000     0          
T        Si     0.193000000000     0.971866666667     0.625000000000     0          
T        Si     0.192933333333     0.887833333333     0.313000000000     0          
T        Si     0.251666666667     0.666666666667     0.500000000000     0          
O        O      0.220033333333     0.900366666667     0.030000000000     0          
O        O      0.213333333333     0.878600000000     0.217900000000     0          
O        O      0.005566666667     0.881566666667     0.909600000000     0          
O        O      0.213900000000     0.884300000000     0.153900000000     0          
T        Si     0.304033333333     0.860066666667     0.937000000000     0          
T        Si     0.221133333333     0.859666666667     0.125000000000     0          
T        Si     0.305100000000     0.859600000000     0.813000000000     0          
T        Si     0.251666666667     0.918333333333     0.000000000000     0          
O        O      0.319666666667     0.886700000000     0.530000000000     0          
O        O      0.001400000000     0.880000000000     0.717900000000     0          
O        O      0.124000000000     0.672233333333     0.409600000000     0          
O        O      0.329600000000     0.880566666667     0.653900000000     0          
T        Si     0.110633333333     0.970700000000     0.437000000000     0          
T        Si     0.028133333333     0.887800000000     0.625000000000     0          
T        Si     0.112166666667     0.971766666667     0.313000000000     0          
T        Si     0.000000000000     0.918333333333     0.500000000000     0          
O        O      0.013666666667     0.900366666667     0.470000000000     0          
O        O      0.331933333333     0.878600000000     0.282100000000     0          
O        O      0.209333333333     0.881566666667     0.590400000000     0          
O        O      0.003733333333     0.884300000000     0.346100000000     0          
T        Si     0.222700000000     0.860066666667     0.563000000000     0          
T        Si     0.305200000000     0.859666666667     0.375000000000     0          
T        Si     0.221166666667     0.859600000000     0.687000000000     0          
O        O      0.113300000000     0.680333333333     0.970000000000     0          
O        O      0.120000000000     0.998600000000     0.782100000000     0          
O        O      0.327766666667     0.876000000000     0.090400000000     0          
O        O      0.119433333333     0.670400000000     0.846100000000     0          
T        Si     0.029300000000     0.889366666667     0.063000000000     0          
T        Si     0.112200000000     0.971866666667     0.875000000000     0          
T        Si     0.028233333333     0.887833333333     0.187000000000     0          
O        O      0.099633333333     0.779966666667     0.470000000000     0          
O        O      0.121400000000     0.786666666667     0.282100000000     0          
O        O      0.118433333333     0.994433333333     0.590400000000     0          
O        O      0.115700000000     0.786100000000     0.346100000000     0          
T        Si     0.139933333333     0.695966666667     0.563000000000     0          
T        Si     0.140333333333     0.778866666667     0.375000000000     0          
T        Si     0.140400000000     0.694900000000     0.687000000000     0          
O        O      0.319666666667     0.766300000000     0.970000000000     0          
O        O      0.001400000000     0.788066666667     0.782100000000     0          
O        O      0.124000000000     0.785100000000     0.090400000000     0          
O        O      0.329600000000     0.782366666667     0.846100000000     0          
T        Si     0.110633333333     0.806600000000     0.063000000000     0          
T        Si     0.028133333333     0.807000000000     0.875000000000     0          
T        Si     0.112166666667     0.807066666667     0.187000000000     0          
O        O      0.220033333333     0.986333333333     0.470000000000     0          
O        O      0.213333333333     0.668066666667     0.282100000000     0          
O        O      0.005566666667     0.790666666667     0.590400000000     0          
O        O      0.213900000000     0.996266666667     0.346100000000     0          
T        Si     0.304033333333     0.777300000000     0.563000000000     0          
T        Si     0.221133333333     0.694800000000     0.375000000000     0          
T        Si     0.305100000000     0.778833333333     0.687000000000     0          
O        O      0.233700000000     0.886700000000     0.970000000000     0          
O        O      0.211933333333     0.880000000000     0.782100000000     0          
O        O      0.214900000000     0.672233333333     0.090400000000     0          
O        O      0.217633333333     0.880566666667     0.846100000000     0          
T        Si     0.193400000000     0.970700000000     0.063000000000     0          
T        Si     0.193000000000     0.887800000000     0.875000000000     0          
T        Si     0.192933333333     0.971766666667     0.187000000000     0          
O        O      0.567033333333     0.013666666667     0.970000000000     0          
O        O      0.590666666667     0.295333333333     0.989300000000     0          
O        O      0.476800000000     0.286900000000     0.750000000000     0          
O        O      0.545266666667     0.331933333333     0.782100000000     0          
O        O      0.535366666667     0.267700000000     0.750000000000     0          
O        O      0.548233333333     0.209333333333     0.090400000000     0          
O        O      0.524866666667     0.262433333333     0.075000000000     0          
O        O      0.481000000000     0.185666666667     0.056100000000     0          
O        O      0.478133333333     0.289600000000     0.871600000000     0          
O        O      0.550966666667     0.003733333333     0.846100000000     0          
O        O      0.534100000000     0.267066666667     0.872500000000     0          
O        O      0.477833333333     0.188833333333     0.186100000000     0          
O        O      0.534000000000     0.267000000000     0.190300000000     0          
T        Si     0.526733333333     0.222700000000     0.063000000000     0          
T        Si     0.526333333333     0.305200000000     0.875000000000     0          
T        Si     0.526266666667     0.221166666667     0.187000000000     0          
T        Si     0.525533333333     0.304566666667     0.750000000000     0          
T        Si     0.585000000000     0.000000000000     0.000000000000     0          
O        O      0.553366666667     0.233700000000     0.470000000000     0          
O        O      0.628666666667     0.257333333333     0.489300000000     0          
O        O      0.523233333333     0.143466666667     0.250000000000     0          
O        O      0.546666666667     0.211933333333     0.282100000000     0          
O        O      0.601000000000     0.202033333333     0.250000000000     0          
O        O      0.338900000000     0.214900000000     0.590400000000     0          
O        O      0.595766666667     0.191533333333     0.575000000000     0          
O        O      0.628666666667     0.147666666667     0.556100000000     0          
O        O      0.521866666667     0.144800000000     0.371600000000     0          
O        O      0.547233333333     0.217633333333     0.346100000000     0          
O        O      0.600366666667     0.200766666667     0.372500000000     0          
O        O      0.622333333333     0.144500000000     0.686100000000     0          
O        O      0.600333333333     0.200666666667     0.690300000000     0          
T        Si     0.637366666667     0.193400000000     0.563000000000     0          
T        Si     0.554466666667     0.193000000000     0.375000000000     0          
T        Si     0.638433333333     0.192933333333     0.687000000000     0          
T        Si     0.554300000000     0.192200000000     0.250000000000     0          
T        Si     0.585000000000     0.251666666667     0.500000000000     0          
O        O      0.653000000000     0.220033333333     0.970000000000     0          
O        O      0.371333333333     0.295333333333     0.989300000000     0          
O        O      0.379766666667     0.189900000000     0.750000000000     0          
O        O      0.334733333333     0.213333333333     0.782100000000     0          
O        O      0.398966666667     0.267666666667     0.750000000000     0          
O        O      0.457333333333     0.005566666667     0.090400000000     0          
O        O      0.404233333333     0.262433333333     0.075000000000     0          
O        O      0.481000000000     0.295333333333     0.056100000000     0          
O        O      0.377066666667     0.188533333333     0.871600000000     0          
O        O      0.662933333333     0.213900000000     0.846100000000     0          
O        O      0.399600000000     0.267033333333     0.872500000000     0          
O        O      0.477833333333     0.289000000000     0.186100000000     0          
O        O      0.399666666667     0.267000000000     0.190300000000     0          
T        Si     0.443966666667     0.304033333333     0.063000000000     0          
T        Si     0.361466666667     0.221133333333     0.875000000000     0          
T        Si     0.445500000000     0.305100000000     0.187000000000     0          
T        Si     0.362100000000     0.220966666667     0.750000000000     0          
T        Si     0.333333333333     0.251666666667     0.000000000000     0          
O        O      0.432966666667     0.319666666667     0.470000000000     0          
O        O      0.409333333333     0.038000000000     0.489300000000     0          
O        O      0.523200000000     0.046433333333     0.250000000000     0          
O        O      0.454733333333     0.001400000000     0.282100000000     0          
O        O      0.464633333333     0.065633333333     0.250000000000     0          
O        O      0.451766666667     0.124000000000     0.590400000000     0          
O        O      0.475133333333     0.070900000000     0.575000000000     0          
O        O      0.519000000000     0.147666666667     0.556100000000     0          
O        O      0.521866666667     0.043733333333     0.371600000000     0          
O        O      0.449033333333     0.329600000000     0.346100000000     0          
O        O      0.465900000000     0.066266666667     0.372500000000     0          
O        O      0.522166666667     0.144500000000     0.686100000000     0          
O        O      0.466000000000     0.066333333333     0.690300000000     0          
T        Si     0.473266666667     0.110633333333     0.563000000000     0          
T        Si     0.473666666667     0.028133333333     0.375000000000     0          
T        Si     0.473733333333     0.112166666667     0.687000000000     0          
T        Si     0.474466666667     0.028766666667     0.250000000000     0          
T        Si     0.415000000000     0.000000000000     0.500000000000     0          
O        O      0.446633333333     0.099633333333     0.970000000000     0          
O        O      0.371333333333     0.076000000000     0.989300000000     0          
O        O      0.476766666667     0.189866666667     0.750000000000     0          
O        O      0.453333333333     0.121400000000     0.782100000000     0          
O        O      0.399000000000     0.131300000000     0.750000000000     0          
O        O      0.661100000000     0.118433333333     0.090400000000     0          
O        O      0.404233333333     0.141800000000     0.075000000000     0          
O        O      0.371333333333     0.185666666667     0.056100000000     0          
O        O      0.478133333333     0.188533333333     0.871600000000     0          
O        O      0.452766666667     0.115700000000     0.846100000000     0          
O        O      0.399633333333     0.132566666667     0.872500000000     0          
O        O      0.377666666667     0.188833333333     0.186100000000     0          
O        O      0.399666666667     0.132666666667     0.190300000000     0          
T        Si     0.362633333333     0.139933333333     0.063000000000     0          
T        Si     0.445533333333     0.140333333333     0.875000000000     0          
T        Si     0.361566666667     0.140400000000     0.187000000000     0          
T        Si     0.445700000000     0.141133333333     0.750000000000     0          
T        Si     0.415000000000     0.081666666667     0.000000000000     0          
O        O      0.347000000000     0.113300000000     0.470000000000     0          
O        O      0.628666666667     0.038000000000     0.489300000000     0          
O        O      0.620233333333     0.143433333333     0.250000000000     0          
O        O      0.665266666667     0.120000000000     0.282100000000     0          
O        O      0.601033333333     0.065666666667     0.250000000000     0          
O        O      0.542666666667     0.327766666667     0.590400000000     0          
O        O      0.595766666667     0.070900000000     0.575000000000     0          
O        O      0.519000000000     0.038000000000     0.556100000000     0          
O        O      0.622933333333     0.144800000000     0.371600000000     0          
O        O      0.337066666667     0.119433333333     0.346100000000     0          
O        O      0.600400000000     0.066300000000     0.372500000000     0          
O        O      0.522166666667     0.044333333333     0.686100000000     0          
O        O      0.600333333333     0.066333333333     0.690300000000     0          
T        Si     0.556033333333     0.029300000000     0.563000000000     0          
T        Si     0.638533333333     0.112200000000     0.375000000000     0          
T        Si     0.554500000000     0.028233333333     0.687000000000     0          
T        Si     0.637900000000     0.112366666667     0.250000000000     0          
T        Si     0.333333333333     0.081666666667     0.500000000000     0          
O        O      0.653000000000     0.099633333333     0.530000000000     0          
O        O      0.371333333333     0.076000000000     0.510700000000     0          
O        O      0.334733333333     0.121400000000     0.717900000000     0          
O        O      0.457333333333     0.118433333333     0.409600000000     0          
O        O      0.404233333333     0.141800000000     0.425000000000     0          
O        O      0.481000000000     0.185666666667     0.443900000000     0          
O        O      0.377066666667     0.188533333333     0.628400000000     0          
O        O      0.662933333333     0.115700000000     0.653900000000     0          
O        O      0.399600000000     0.132566666667     0.627500000000     0          
O        O      0.477833333333     0.188833333333     0.313900000000     0          
O        O      0.399666666667     0.132666666667     0.309700000000     0          
T        Si     0.443966666667     0.139933333333     0.437000000000     0          
T        Si     0.361466666667     0.140333333333     0.625000000000     0          
T        Si     0.445500000000     0.140400000000     0.313000000000     0          
T        Si     0.362100000000     0.141133333333     0.750000000000     0          
O        O      0.553366666667     0.319666666667     0.030000000000     0          
O        O      0.628666666667     0.038000000000     0.010700000000     0          
O        O      0.546666666667     0.001400000000     0.217900000000     0          
O        O      0.338900000000     0.124000000000     0.909600000000     0          
O        O      0.595766666667     0.070900000000     0.925000000000     0          
O        O      0.628666666667     0.147666666667     0.943900000000     0          
O        O      0.521866666667     0.043733333333     0.128400000000     0          
O        O      0.547233333333     0.329600000000     0.153900000000     0          
O        O      0.600366666667     0.066266666667     0.127500000000     0          
O        O      0.622333333333     0.144500000000     0.813900000000     0          
O        O      0.600333333333     0.066333333333     0.809700000000     0          
T        Si     0.637366666667     0.110633333333     0.937000000000     0          
T        Si     0.554466666667     0.028133333333     0.125000000000     0          
T        Si     0.638433333333     0.112166666667     0.813000000000     0          
T        Si     0.554300000000     0.028766666667     0.250000000000     0          
O        O      0.567033333333     0.220033333333     0.530000000000     0          
O        O      0.590666666667     0.295333333333     0.510700000000     0          
O        O      0.545266666667     0.213333333333     0.717900000000     0          
O        O      0.548233333333     0.005566666667     0.409600000000     0          
O        O      0.524866666667     0.262433333333     0.425000000000     0          
O        O      0.481000000000     0.295333333333     0.443900000000     0          
O        O      0.478133333333     0.188533333333     0.628400000000     0          
O        O      0.550966666667     0.213900000000     0.653900000000     0          
O        O      0.534100000000     0.267033333333     0.627500000000     0          
O        O      0.477833333333     0.289000000000     0.313900000000     0          
O        O      0.534000000000     0.267000000000     0.309700000000     0          
T        Si     0.526733333333     0.304033333333     0.437000000000     0          
T        Si     0.526333333333     0.221133333333     0.625000000000     0          
T        Si     0.526266666667     0.305100000000     0.313000000000     0          
T        Si     0.525533333333     0.220966666667     0.750000000000     0          
O        O      0.347000000000     0.233700000000     0.030000000000     0          
O        O      0.628666666667     0.257333333333     0.010700000000     0          
O        O      0.665266666667     0.211933333333     0.217900000000     0          
O        O      0.542666666667     0.214900000000     0.909600000000     0          
O        O      0.595766666667     0.191533333333     0.925000000000     0          
O        O      0.519000000000     0.147666666667     0.943900000000     0          
O        O      0.622933333333     0.144800000000     0.128400000000     0          
O        O      0.337066666667     0.217633333333     0.153900000000     0          
O        O      0.600400000000     0.200766666667     0.127500000000     0          
O        O      0.522166666667     0.144500000000     0.813900000000     0          
O        O      0.600333333333     0.200666666667     0.809700000000     0          
T        Si     0.556033333333     0.193400000000     0.937000000000     0          
T        Si     0.638533333333     0.193000000000     0.125000000000     0          
T        Si     0.554500000000     0.192933333333     0.813000000000     0          
T        Si     0.637900000000     0.192200000000     0.250000000000     0          
O        O      0.446633333333     0.013666666667     0.530000000000     0          
O        O      0.371333333333     0.295333333333     0.510700000000     0          
O        O      0.453333333333     0.331933333333     0.717900000000     0          
O        O      0.661100000000     0.209333333333     0.409600000000     0          
O        O      0.404233333333     0.262433333333     0.425000000000     0          
O        O      0.371333333333     0.185666666667     0.443900000000     0          
O        O      0.478133333333     0.289600000000     0.628400000000     0          
O        O      0.452766666667     0.003733333333     0.653900000000     0          
O        O      0.399633333333     0.267066666667     0.627500000000     0          
O        O      0.377666666667     0.188833333333     0.313900000000     0          
O        O      0.399666666667     0.267000000000     0.309700000000     0          
T        Si     0.362633333333     0.222700000000     0.437000000000     0          
T        Si     0.445533333333     0.305200000000     0.625000000000     0          
T        Si     0.361566666667     0.221166666667     0.313000000000     0          
T        Si     0.445700000000     0.304566666667     0.750000000000     0          
O        O      0.432966666667     0.113300000000     0.030000000000     0          
O        O      0.409333333333     0.038000000000     0.010700000000     0          
O        O      0.454733333333     0.120000000000     0.217900000000     0          
O        O      0.451766666667     0.327766666667     0.909600000000     0          
O        O      0.475133333333     0.070900000000     0.925000000000     0          
O        O      0.519000000000     0.038000000000     0.943900000000     0          
O        O      0.521866666667     0.144800000000     0.128400000000     0          
O        O      0.449033333333     0.119433333333     0.153900000000     0          
O        O      0.465900000000     0.066300000000     0.127500000000     0          
O        O      0.522166666667     0.044333333333     0.813900000000     0          
O        O      0.466000000000     0.066333333333     0.809700000000     0          
T        Si     0.473266666667     0.029300000000     0.937000000000     0          
T        Si     0.473666666667     0.112200000000     0.125000000000     0          
T        Si     0.473733333333     0.028233333333     0.813000000000     0          
T        Si     0.474466666667     0.112366666667     0.250000000000     0          
O        O      0.432966666667     0.319666666667     0.030000000000     0          
O        O      0.454733333333     0.001400000000     0.217900000000     0          
O        O      0.451766666667     0.124000000000     0.909600000000     0          
O        O      0.449033333333     0.329600000000     0.153900000000     0          
T        Si     0.473266666667     0.110633333333     0.937000000000     0          
T        Si     0.473666666667     0.028133333333     0.125000000000     0          
T        Si     0.473733333333     0.112166666667     0.813000000000     0          
T        Si     0.415000000000     0.000000000000     0.000000000000     0          
O        O      0.446633333333     0.099633333333     0.530000000000     0          
O        O      0.453333333333     0.121400000000     0.717900000000     0          
O        O      0.661100000000     0.118433333333     0.409600000000     0          
O        O      0.452766666667     0.115700000000     0.653900000000     0          
T        Si     0.362633333333     0.139933333333     0.437000000000     0          
T        Si     0.445533333333     0.140333333333     0.625000000000     0          
T        Si     0.361566666667     0.140400000000     0.313000000000     0          
T        Si     0.415000000000     0.081666666667     0.500000000000     0          
O        O      0.347000000000     0.113300000000     0.030000000000     0          
O        O      0.665266666667     0.120000000000     0.217900000000     0          
O        O      0.542666666667     0.327766666667     0.909600000000     0          
O        O      0.337066666667     0.119433333333     0.153900000000     0          
T        Si     0.556033333333     0.029300000000     0.937000000000     0          
T        Si     0.638533333333     0.112200000000     0.125000000000     0          
T        Si     0.554500000000     0.028233333333     0.813000000000     0          
T        Si     0.333333333333     0.081666666667     0.000000000000     0          
O        O      0.567033333333     0.013666666667     0.530000000000     0          
O        O      0.545266666667     0.331933333333     0.717900000000     0          
O        O      0.548233333333     0.209333333333     0.409600000000     0          
O        O      0.550966666667     0.003733333333     0.653900000000     0          
T        Si     0.526733333333     0.222700000000     0.437000000000     0          
T        Si     0.526333333333     0.305200000000     0.625000000000     0          
T        Si     0.526266666667     0.221166666667     0.313000000000     0          
T        Si     0.585000000000     0.000000000000     0.500000000000     0          
O        O      0.553366666667     0.233700000000     0.030000000000     0          
O        O      0.546666666667     0.211933333333     0.217900000000     0          
O        O      0.338900000000     0.214900000000     0.909600000000     0          
O        O      0.547233333333     0.217633333333     0.153900000000     0          
T        Si     0.637366666667     0.193400000000     0.937000000000     0          
T        Si     0.554466666667     0.193000000000     0.125000000000     0          
T        Si     0.638433333333     0.192933333333     0.813000000000     0          
T        Si     0.585000000000     0.251666666667     0.000000000000     0          
O        O      0.653000000000     0.220033333333     0.530000000000     0          
O        O      0.334733333333     0.213333333333     0.717900000000     0          
O        O      0.457333333333     0.005566666667     0.409600000000     0          
O        O      0.662933333333     0.213900000000     0.653900000000     0          
T        Si     0.443966666667     0.304033333333     0.437000000000     0          
T        Si     0.361466666667     0.221133333333     0.625000000000     0          
T        Si     0.445500000000     0.305100000000     0.313000000000     0          
T        Si     0.333333333333     0.251666666667     0.500000000000     0          
O        O      0.347000000000     0.233700000000     0.470000000000     0          
O        O      0.665266666667     0.211933333333     0.282100000000     0          
O        O      0.542666666667     0.214900000000     0.590400000000     0          
O        O      0.337066666667     0.217633333333     0.346100000000     0          
T        Si     0.556033333333     0.193400000000     0.563000000000     0          
T        Si     0.638533333333     0.193000000000     0.375000000000     0          
T        Si     0.554500000000     0.192933333333     0.687000000000     0          
O        O      0.446633333333     0.013666666667     0.970000000000     0          
O        O      0.453333333333     0.331933333333     0.782100000000     0          
O        O      0.661100000000     0.209333333333     0.090400000000     0          
O        O      0.452766666667     0.003733333333     0.846100000000     0          
T        Si     0.362633333333     0.222700000000     0.063000000000     0          
T        Si     0.445533333333     0.305200000000     0.875000000000     0          
T        Si     0.361566666667     0.221166666667     0.187000000000     0          
O        O      0.432966666667     0.113300000000     0.470000000000     0          
O        O      0.454733333333     0.120000000000     0.282100000000     0          
O        O      0.451766666667     0.327766666667     0.590400000000     0          
O        O      0.449033333333     0.119433333333     0.346100000000     0          
T        Si     0.473266666667     0.029300000000     0.563000000000     0          
T        Si     0.473666666667     0.112200000000     0.375000000000     0          
T        Si     0.473733333333     0.028233333333     0.687000000000     0          
O        O      0.653000000000     0.099633333333     0.970000000000     0          
O        O      0.334733333333     0.121400000000     0.782100000000     0          
O        O      0.457333333333     0.118433333333     0.090400000000     0          
O        O      0.662933333333     0.115700000000     0.846100000000     0          
T        Si     0.443966666667     0.139933333333     0.063000000000     0          
T        Si     0.361466666667     0.140333333333     0.875000000000     0          
T        Si     0.445500000000     0.140400000000     0.187000000000     0          
O        O      0.553366666667     0.319666666667     0.470000000000     0          
O        O      0.546666666667     0.001400000000     0.282100000000     0          
O        O      0.338900000000     0.124000000000     0.590400000000     0          
O        O      0.547233333333     0.329600000000     0.346100000000     0          
T        Si     0.637366666667     0.110633333333     0.563000000000     0          
T        Si     0.554466666667     0.028133333333     0.375000000000     0          
T        Si     0.638433333333     0.112166666667     0.687000000000     0          
O        O      0.567033333333     0.220033333333     0.970000000000     0          
O        O      0.545266666667     0.213333333333     0.782100000000     0          
O        O      0.548233333333     0.005566666667     0.090400000000     0          
O        O      0.550966666667     0.213900000000     0.846100000000     0          
T        Si     0.526733333333     0.304033333333     0.063000000000     0          
T        Si     0.526333333333     0.221133333333     0.875000000000     0          
T        Si     0.526266666667     0.305100000000     0.187000000000     0          
O        O      0.567033333333     0.347000000000     0.970000000000     0          
O        O      0.590666666667     0.628666666667     0.989300000000     0          
O        O      0.476800000000     0.620233333333     0.750000000000     0          
O        O      0.545266666667     0.665266666667     0.782100000000     0          
O        O      0.535366666667     0.601033333333     0.750000000000     0          
O        O      0.548233333333     0.542666666667     0.090400000000     0          
O        O      0.524866666667     0.595766666667     0.075000000000     0          
O        O      0.481000000000     0.519000000000     0.056100000000     0          
O        O      0.478133333333     0.622933333333     0.871600000000     0          
O        O      0.550966666667     0.337066666667     0.846100000000     0          
O        O      0.534100000000     0.600400000000     0.872500000000     0          
O        O      0.477833333333     0.522166666667     0.186100000000     0          
O        O      0.534000000000     0.600333333333     0.190300000000     0          
T        Si     0.526733333333     0.556033333333     0.063000000000     0          
T        Si     0.526333333333     0.638533333333     0.875000000000     0          
T        Si     0.526266666667     0.554500000000     0.187000000000     0          
T        Si     0.525533333333     0.637900000000     0.750000000000     0          
T        Si     0.585000000000     0.333333333333     0.000000000000     0          
O        O      0.553366666667     0.567033333333     0.470000000000     0          
O        O      0.628666666667     0.590666666667     0.489300000000     0          
O        O      0.523233333333     0.476800000000     0.250000000000     0          
O        O      0.546666666667     0.545266666667     0.282100000000     0          
O        O      0.601000000000     0.535366666667     0.250000000000     0          
O        O      0.338900000000     0.548233333333     0.590400000000     0          
O        O      0.595766666667     0.524866666667     0.575000000000     0          
O        O      0.628666666667     0.481000000000     0.556100000000     0          
O        O      0.521866666667     0.478133333333     0.371600000000     0          
O        O      0.547233333333     0.550966666667     0.346100000000     0          
O        O      0.600366666667     0.534100000000     0.372500000000     0          
O        O      0.622333333333     0.477833333333     0.686100000000     0          
O        O      0.600333333333     0.534000000000     0.690300000000     0          
T        Si     0.637366666667     0.526733333333     0.563000000000     0          
T        Si     0.554466666667     0.526333333333     0.375000000000     0          
T        Si     0.638433333333     0.526266666667     0.687000000000     0          
T        Si     0.554300000000     0.525533333333     0.250000000000     0          
T        Si     0.585000000000     0.585000000000     0.500000000000     0          
O        O      0.653000000000     0.553366666667     0.970000000000     0          
O        O      0.371333333333     0.628666666667     0.989300000000     0          
O        O      0.379766666667     0.523233333333     0.750000000000     0          
O        O      0.334733333333     0.546666666667     0.782100000000     0          
O        O      0.398966666667     0.601000000000     0.750000000000     0          
O        O      0.457333333333     0.338900000000     0.090400000000     0          
O        O      0.404233333333     0.595766666667     0.075000000000     0          
O        O      0.481000000000     0.628666666667     0.056100000000     0          
O        O      0.377066666667     0.521866666667     0.871600000000     0          
O        O      0.662933333333     0.547233333333     0.846100000000     0          
O        O      0.399600000000     0.600366666667     0.872500000000     0          
O        O      0.477833333333     0.622333333333     0.186100000000     0          
O        O      0.399666666667     0.600333333333     0.190300000000     0          
T        Si     0.443966666667     0.637366666667     0.063000000000     0          
T        Si     0.361466666667     0.554466666667     0.875000000000     0          
T        Si     0.445500000000     0.638433333333     0.187000000000     0          
T        Si     0.362100000000     0.554300000000     0.750000000000     0          
T        Si     0.333333333333     0.585000000000     0.000000000000     0          
O        O      0.432966666667     0.653000000000     0.470000000000     0          
O        O      0.409333333333     0.371333333333     0.489300000000     0          
O        O      0.523200000000     0.379766666667     0.250000000000     0          
O        O      0.454733333333     0.334733333333     0.282100000000     0          
O        O      0.464633333333     0.398966666667     0.250000000000     0          
O        O      0.451766666667     0.457333333333     0.590400000000     0          
O        O      0.475133333333     0.404233333333     0.575000000000     0          
O        O      0.519000000000     0.481000000000     0.556100000000     0          
O        O      0.521866666667     0.377066666667     0.371600000000     0          
O        O      0.449033333333     0.662933333333     0.346100000000     0          
O        O      0.465900000000     0.399600000000     0.372500000000     0          
O        O      0.522166666667     0.477833333333     0.686100000000     0          
O        O      0.466000000000     0.399666666667     0.690300000000     0          
T        Si     0.473266666667     0.443966666667     0.563000000000     0          
T        Si     0.473666666667     0.361466666667     0.375000000000     0          
T        Si     0.473733333333     0.445500000000     0.687000000000     0          
T        Si     0.474466666667     0.362100000000     0.250000000000     0          
T        Si     0.415000000000     0.333333333333     0.500000000000     0          
O        O      0.446633333333     0.432966666667     0.970000000000     0          
O        O      0.371333333333     0.409333333333     0.989300000000     0          
O        O      0.476766666667     0.523200000000     0.750000000000     0          
O        O      0.453333333333     0.454733333333     0.782100000000     0          
O        O      0.399000000000     0.464633333333     0.750000000000     0          
O        O      0.661100000000     0.451766666667     0.090400000000     0          
O        O      0.404233333333     0.475133333333     0.075000000000     0          
O        O      0.371333333333     0.519000000000     0.056100000000     0          
O        O      0.478133333333     0.521866666667     0.871600000000     0          
O        O      0.452766666667     0.449033333333     0.846100000000     0          
O        O      0.399633333333     0.465900000000     0.872500000000     0          
O        O      0.377666666667     0.522166666667     0.186100000000     0          
O        O      0.399666666667     0.466000000000     0.190300000000     0          
T        Si     0.362633333333     0.473266666667     0.063000000000     0          
T        Si     0.445533333333     0.473666666667     0.875000000000     0          
T        Si     0.361566666667     0.473733333333     0.187000000000     0          
T        Si     0.445700000000     0.474466666667     0.750000000000     0          
T        Si     0.415000000000     0.415000000000     0.000000000000     0          
O        O      0.347000000000     0.446633333333     0.470000000000     0          
O        O      0.628666666667     0.371333333333     0.489300000000     0          
O        O      0.620233333333     0.476766666667     0.250000000000     0          
O        O      0.665266666667     0.453333333333     0.282100000000     0          
O        O      0.601033333333     0.399000000000     0.250000000000     0          
O        O      0.542666666667     0.661100000000     0.590400000000     0          
O        O      0.595766666667     0.404233333333     0.575000000000     0          
O        O      0.519000000000     0.371333333333     0.556100000000     0          
O        O      0.622933333333     0.478133333333     0.371600000000     0          
O        O      0.337066666667     0.452766666667     0.346100000000     0          
O        O      0.600400000000     0.399633333333     0.372500000000     0          
O        O      0.522166666667     0.377666666667     0.686100000000     0          
O        O      0.600333333333     0.399666666667     0.690300000000     0          
T        Si     0.556033333333     0.362633333333     0.563000000000     0          
T        Si     0.638533333333     0.445533333333     0.375000000000     0          
T        Si     0.554500000000     0.361566666667     0.687000000000     0          
T        Si     0.637900000000     0.445700000000     0.250000000000     0          
T        Si     0.333333333333     0.415000000000     0.500000000000     0          
O        O      0.653000000000     0.432966666667     0.530000000000     0          
O        O      0.371333333333     0.409333333333     0.510700000000     0          
O        O      0.334733333333     0.454733333333     0.717900000000     0          
O        O      0.457333333333     0.451766666667     0.409600000000     0          
O        O      0.404233333333     0.475133333333     0.425000000000     0          
O        O      0.481000000000     0.519000000000     0.443900000000     0          
O        O      0.377066666667     0.521866666667     0.628400000000     0          
O        O      0.662933333333     0.449033333333     0.653900000000     0          
O        O      0.399600000000     0.465900000000     0.627500000000     0          
O        O      0.477833333333     0.522166666667     0.313900000000     0          
O        O      0.399666666667     0.466000000000     0.309700000000     0          
T        Si     0.443966666667     0.473266666667     0.437000000000     0          
T        Si     0.361466666667     0.473666666667     0.625000000000     0          
T        Si     0.445500000000     0.473733333333     0.313000000000     0          
T        Si     0.362100000000     0.474466666667     0.750000000000     0          
O        O      0.553366666667     0.653000000000     0.030000000000     0          
O        O      0.628666666667     0.371333333333     0.010700000000     0          
O        O      0.546666666667     0.334733333333     0.217900000000     0          
O        O      0.338900000000     0.457333333333     0.909600000000     0          
O        O      0.595766666667     0.404233333333     0.925000000000     0          
O        O      0.628666666667     0.481000000000     0.943900000000     0          
O        O      0.521866666667     0.377066666667     0.128400000000     0          
O        O      0.547233333333     0.662933333333     0.153900000000     0          
O        O      0.600366666667     0.399600000000     0.127500000000     0          
O        O      0.622333333333     0.477833333333     0.813900000000     0          
O        O      0.600333333333     0.399666666667     0.809700000000     0          
T        Si     0.637366666667     0.443966666667     0.937000000000     0          
T        Si     0.554466666667     0.361466666667     0.125000000000     0          
T        Si     0.638433333333     0.445500000000     0.813000000000     0          
T        Si     0.554300000000     0.362100000000     0.250000000000     0          
O        O      0.567033333333     0.553366666667     0.530000000000     0          
O        O      0.590666666667     0.628666666667     0.510700000000     0          
O        O      0.545266666667     0.546666666667     0.717900000000     0          
O        O      0.548233333333     0.338900000000     0.409600000000     0          
O        O      0.524866666667     0.595766666667     0.425000000000     0          
O        O      0.481000000000     0.628666666667     0.443900000000     0          
O        O      0.478133333333     0.521866666667     0.628400000000     0          
O        O      0.550966666667     0.547233333333     0.653900000000     0          
O        O      0.534100000000     0.600366666667     0.627500000000     0          
O        O      0.477833333333     0.622333333333     0.313900000000     0          
O        O      0.534000000000     0.600333333333     0.309700000000     0          
T        Si     0.526733333333     0.637366666667     0.437000000000     0          
T        Si     0.526333333333     0.554466666667     0.625000000000     0          
T        Si     0.526266666667     0.638433333333     0.313000000000     0          
T        Si     0.525533333333     0.554300000000     0.750000000000     0          
O        O      0.347000000000     0.567033333333     0.030000000000     0          
O        O      0.628666666667     0.590666666667     0.010700000000     0          
O        O      0.665266666667     0.545266666667     0.217900000000     0          
O        O      0.542666666667     0.548233333333     0.909600000000     0          
O        O      0.595766666667     0.524866666667     0.925000000000     0          
O        O      0.519000000000     0.481000000000     0.943900000000     0          
O        O      0.622933333333     0.478133333333     0.128400000000     0          
O        O      0.337066666667     0.550966666667     0.153900000000     0          
O        O      0.600400000000     0.534100000000     0.127500000000     0          
O        O      0.522166666667     0.477833333333     0.813900000000     0          
O        O      0.600333333333     0.534000000000     0.809700000000     0          
T        Si     0.556033333333     0.526733333333     0.937000000000     0          
T        Si     0.638533333333     0.526333333333     0.125000000000     0          
T        Si     0.554500000000     0.526266666667     0.813000000000     0          
T        Si     0.637900000000     0.525533333333     0.250000000000     0          
O        O      0.446633333333     0.347000000000     0.530000000000     0          
O        O      0.371333333333     0.628666666667     0.510700000000     0          
O        O      0.453333333333     0.665266666667     0.717900000000     0          
O        O      0.661100000000     0.542666666667     0.409600000000     0          
O        O      0.404233333333     0.595766666667     0.425000000000     0          
O        O      0.371333333333     0.519000000000     0.443900000000     0          
O        O      0.478133333333     0.622933333333     0.628400000000     0          
O        O      0.452766666667     0.337066666667     0.653900000000     0          
O        O      0.399633333333     0.600400000000     0.627500000000     0          
O        O      0.377666666667     0.522166666667     0.313900000000     0          
O        O      0.399666666667     0.600333333333     0.309700000000     0          
T        Si     0.362633333333     0.556033333333     0.437000000000     0          
T        Si     0.445533333333     0.638533333333     0.625000000000     0          
T        Si     0.361566666667     0.554500000000     0.313000000000     0          
T        Si     0.445700000000     0.637900000000     0.750000000000     0          
O        O      0.432966666667     0.446633333333     0.030000000000     0          
O        O      0.409333333333     0.371333333333     0.010700000000     0          
O        O      0.454733333333     0.453333333333     0.217900000000     0          
O        O      0.451766666667     0.661100000000     0.909600000000     0          
O        O      0.475133333333     0.404233333333     0.925000000000     0          
O        O      0.519000000000     0.371333333333     0.943900000000     0          
O        O      0.521866666667     0.478133333333     0.128400000000     0          
O        O      0.449033333333     0.452766666667     0.153900000000     0          
O        O      0.465900000000     0.399633333333     0.127500000000     0          
O        O      0.522166666667     0.377666666667     0.813900000000     0          
O        O      0.466000000000     0.399666666667     0.809700000000     0          
T        Si     0.473266666667     0.362633333333     0.937000000000     0          
T        Si     0.473666666667     0.445533333333     0.125000000000     0          
T        Si     0.473733333333     0.361566666667     0.813000000000     0          
T        Si     0.474466666667     0.445700000000     0.250000000000     0          
O        O      0.432966666667     0.653000000000     0.030000000000     0          
O        O      0.454733333333     0.334733333333     0.217900000000     0          
O        O      0.451766666667     0.457333333333     0.909600000000     0          
O        O      0.449033333333     0.662933333333     0.153900000000     0          
T        Si     0.473266666667     0.443966666667     0.937000000000     0          
T        Si     0.473666666667     0.361466666667     0.125000000000     0          
T        Si     0.473733333333     0.445500000000     0.813000000000     0          
T        Si     0.415000000000     0.333333333333     0.000000000000     0          
O        O      0.446633333333     0.432966666667     0.530000000000     0          
O        O      0.453333333333     0.454733333333     0.717900000000     0          
O        O      0.661100000000     0.451766666667     0.409600000000     0          
O        O      0.452766666667     0.449033333333     0.653900000000     0          
T        Si     0.362633333333     0.473266666667     0.437000000000     0          
T        Si     0.445533333333     0.473666666667     0.625000000000     0          
T        Si     0.361566666667     0.473733333333     0.313000000000     0          
T        Si     0.415000000000     0.415000000000     0.500000000000     0          
O        O      0.347000000000     0.446633333333     0.030000000000     0          
O        O      0.665266666667     0.453333333333     0.217900000000     0          
O        O      0.542666666667     0.661100000000     0.909600000000     0          
O        O      0.337066666667     0.452766666667     0.153900000000     0          
T        Si     0.556033333333     0.362633333333     0.937000000000     0          
T        Si     0.638533333333     0.445533333333     0.125000000000     0          
T        Si     0.554500000000     0.361566666667     0.813000000000     0          
T        Si     0.333333333333     0.415000000000     0.000000000000     0          
O        O      0.567033333333     0.347000000000     0.530000000000     0          
O        O      0.545266666667     0.665266666667     0.717900000000     0          
O        O      0.548233333333     0.542666666667     0.409600000000     0          
O        O      0.550966666667     0.337066666667     0.653900000000     0          
T        Si     0.526733333333     0.556033333333     0.437000000000     0          
T        Si     0.526333333333     0.638533333333     0.625000000000     0          
T        Si     0.526266666667     0.554500000000     0.313000000000     0          
T        Si     0.585000000000     0.333333333333     0.500000000000     0          
O        O      0.553366666667     0.567033333333     0.030000000000     0          
O        O      0.546666666667     0.545266666667     0.217900000000     0          
O        O      0.338900000000     0.548233333333     0.909600000000     0          
O        O      0.547233333333     0.550966666667     0.153900000000     0          
T        Si     0.637366666667     0.526733333333     0.937000000000     0          
T        Si     0.554466666667     0.526333333333     0.125000000000     0          
T        Si     0.638433333333     0.526266666667     0.813000000000     0          
T        Si     0.585000000000     0.585000000000     0.000000000000     0          
O        O      0.653000000000     0.553366666667     0.530000000000     0          
O        O      0.334733333333     0.546666666667     0.717900000000     0          
O        O      0.457333333333     0.338900000000     0.409600000000     0          
O        O      0.662933333333     0.547233333333     0.653900000000     0          
T        Si     0.443966666667     0.637366666667     0.437000000000     0          
T        Si     0.361466666667     0.554466666667     0.625000000000     0          
T        Si     0.445500000000     0.638433333333     0.313000000000     0          
T        Si     0.333333333333     0.585000000000     0.500000000000     0          
O        O      0.347000000000     0.567033333333     0.470000000000     0          
O        O      0.665266666667     0.545266666667     0.282100000000     0          
O        O      0.542666666667     0.548233333333     0.590400000000     0          
O        O      0.337066666667     0.550966666667     0.346100000000     0          
T        Si     0.556033333333     0.526733333333     0.563000000000     0          
T        Si     0.638533333333     0.526333333333     0.375000000000     0          
T        Si     0.554500000000     0.526266666667     0.687000000000     0          
O        O      0.446633333333     0.347000000000     0.970000000000     0          
O        O      0.453333333333     0.665266666667     0.782100000000     0          
O        O      0.661100000000     0.542666666667     0.090400000000     0          
O        O      0.452766666667     0.337066666667     0.846100000000     0          
T        Si     0.362633333333     0.556033333333     0.063000000000     0          
T        Si     0.445533333333     0.638533333333     0.875000000000     0          
T        Si     0.361566666667     0.554500000000     0.187000000000     0          
O        O      0.432966666667     0.446633333333     0.470000000000     0          
O        O      0.454733333333     0.453333333333     0.282100000000     0          
O        O      0.451766666667     0.661100000000     0.590400000000     0          
O        O      0.449033333333     0.452766666667     0.346100000000     0          
T        Si     0.473266666667     0.362633333333     0.563000000000     0          
T        Si     0.473666666667     0.445533333333     0.375000000000     0          
T        Si     0.473733333333     0.361566666667     0.687000000000     0          
O        O      0.653000000000     0.432966666667     0.970000000000     0          
O        O      0.334733333333     0.454733333333     0.782100000000     0          
O        O      0.457333333333     0.451766666667     0.090400000000     0          
O        O      0.662933333333     0.449033333333     0.846100000000     0          
T        Si     0.443966666667     0.473266666667     0.063000000000     0          
T        Si     0.361466666667     0.473666666667     0.875000000000     0          
T        Si     0.445500000000     0.473733333333     0.187000000000     0          
O        O      0.553366666667     0.653000000000     0.470000000000     0          
O        O      0.546666666667     0.334733333333     0.282100000000     0          
O        O      0.338900000000     0.457333333333     0.590400000000     0          
O        O      0.547233333333     0.662933333333     0.346100000000     0          
T        Si     0.637366666667     0.443966666667     0.563000000000     0          
T        Si     0.554466666667     0.361466666667     0.375000000000     0          
T        Si     0.638433333333     0.445500000000     0.687000000000     0          
O        O      0.567033333333     0.553366666667     0.970000000000     0          
O        O      0.545266666667     0.546666666667     0.782100000000     0          
O        O      0.548233333333     0.338900000000     0.090400000000     0          
O        O      0.550966666667     0.547233333333     0.846100000000     0          
T        Si     0.526733333333     0.637366666667     0.063000000000     0          
T        Si     0.526333333333     0.554466666667     0.875000000000     0          
T        Si     0.526266666667     0.638433333333     0.187000000000     0          
O        O      0.567033333333     0.680333333333     0.970000000000     0          
O        O      0.590666666667     0.962000000000     0.989300000000     0          
O        O      0.476800000000     0.953566666667     0.750000000000     0          
O        O      0.545266666667     0.998600000000     0.782100000000     0          
O        O      0.535366666667     0.934366666667     0.750000000000     0          
O        O      0.548233333333     0.876000000000     0.090400000000     0          
O        O      0.524866666667     0.929100000000     0.075000000000     0          
O        O      0.481000000000     0.852333333333     0.056100000000     0          
O        O      0.478133333333     0.956266666667     0.871600000000     0          
O        O      0.550966666667     0.670400000000     0.846100000000     0          
O        O      0.534100000000     0.933733333333     0.872500000000     0          
O        O      0.477833333333     0.855500000000     0.186100000000     0          
O        O      0.534000000000     0.933666666667     0.190300000000     0          
T        Si     0.526733333333     0.889366666667     0.063000000000     0          
T        Si     0.526333333333     0.971866666667     0.875000000000     0          
T        Si     0.526266666667     0.887833333333     0.187000000000     0          
T        Si     0.525533333333     0.971233333333     0.750000000000     0          
T        Si     0.585000000000     0.666666666667     0.000000000000     0          
O        O      0.553366666667     0.900366666667     0.470000000000     0          
O        O      0.628666666667     0.924000000000     0.489300000000     0          
O        O      0.523233333333     0.810133333333     0.250000000000     0          
O        O      0.546666666667     0.878600000000     0.282100000000     0          
O        O      0.601000000000     0.868700000000     0.250000000000     0          
O        O      0.338900000000     0.881566666667     0.590400000000     0          
O        O      0.595766666667     0.858200000000     0.575000000000     0          
O        O      0.628666666667     0.814333333333     0.556100000000     0          
O        O      0.521866666667     0.811466666667     0.371600000000     0          
O        O      0.547233333333     0.884300000000     0.346100000000     0          
O        O      0.600366666667     0.867433333333     0.372500000000     0          
O        O      0.622333333333     0.811166666667     0.686100000000     0          
O        O      0.600333333333     0.867333333333     0.690300000000     0          
T        Si     0.637366666667     0.860066666667     0.563000000000     0          
T        Si     0.554466666667     0.859666666667     0.375000000000     0          
T        Si     0.638433333333     0.859600000000     0.687000000000     0          
T        Si     0.554300000000     0.858866666667     0.250000000000     0          
T        Si     0.585000000000     0.918333333333     0.500000000000     0          
O        O      0.653000000000     0.886700000000     0.970000000000     0          
O        O      0.371333333333     0.962000000000     0.989300000000     0          
O        O      0.379766666667     0.856566666667     0.750000000000     0          
O        O      0.334733333333     0.880000000000     0.782100000000     0          
O        O      0.398966666667     0.934333333333     0.750000000000     0          
O        O      0.457333333333     0.672233333333     0.090400000000     0          
O        O      0.404233333333     0.929100000000     0.075000000000     0          
O        O      0.481000000000     0.962000000000     0.056100000000     0          
O        O      0.377066666667     0.855200000000     0.871600000000     0          
O        O      0.662933333333     0.880566666667     0.846100000000     0          
O        O      0.399600000000     0.933700000000     0.872500000000     0          
O        O      0.477833333333     0.955666666667     0.186100000000     0          
O        O      0.399666666667     0.933666666667     0.190300000000     0          
T        Si     0.443966666667     0.970700000000     0.063000000000     0          
T        Si     0.361466666667     0.887800000000     0.875000000000     0          
T        Si     0.445500000000     0.971766666667     0.187000000000     0          
T        Si     0.362100000000     0.887633333333     0.750000000000     0          
T        Si     0.333333333333     0.918333333333     0.000000000000     0          
O        O      0.432966666667     0.986333333333     0.470000000000     0          
O        O      0.409333333333     0.704666666667     0.489300000000     0          
O        O      0.523200000000     0.713100000000     0.250000000000     0          
O        O      0.454733333333     0.668066666667     0.282100000000     0          
O        O      0.464633333333     0.732300000000     0.250000000000     0          
O        O      0.451766666667     0.790666666667     0.590400000000     0          
O        O      0.475133333333     0.737566666667     0.575000000000     0          
O        O      0.519000000000     0.814333333333     0.556100000000     0          
O        O      0.521866666667     0.710400000000     0.371600000000     0          
O        O      0.449033333333     0.996266666667     0.346100000000     0          
O        O      0.465900000000     0.732933333333     0.372500000000     0          
O        O      0.522166666667     0.811166666667     0.686100000000     0          
O        O      0.466000000000     0.733000000000     0.690300000000     0          
T        Si     0.473266666667     0.777300000000     0.563000000000     0          
T        Si     0.473666666667     0.694800000000     0.375000000000     0          
T        Si     0.473733333333     0.778833333333     0.687000000000     0          
T        Si     0.474466666667     0.695433333333     0.250000000000     0          
T        Si     0.415000000000     0.666666666667     0.500000000000     0          
O        O      0.446633333333     0.766300000000     0.970000000000     0          
O        O      0.371333333333     0.742666666667     0.989300000000     0          
O        O      0.476766666667     0.856533333333     0.750000000000     0          
O        O      0.453333333333     0.788066666667     0.782100000000     0          
O        O      0.399000000000     0.797966666667     0.750000000000     0          
O        O      0.661100000000     0.785100000000     0.090400000000     0          
O        O      0.404233333333     0.808466666667     0.075000000000     0          
O        O      0.371333333333     0.852333333333     0.056100000000     0          
O        O      0.478133333333     0.855200000000     0.871600000000     0          
O        O      0.452766666667     0.782366666667     0.846100000000     0          
O        O      0.399633333333     0.799233333333     0.872500000000     0          
O        O      0.377666666667     0.855500000000     0.186100000000     0          
O        O      0.399666666667     0.799333333333     0.190300000000     0          
T        Si     0.362633333333     0.806600000000     0.063000000000     0          
T        Si     0.445533333333     0.807000000000     0.875000000000     0          
T        Si     0.361566666667     0.807066666667     0.187000000000     0          
T        Si     0.445700000000     0.807800000000     0.750000000000     0          
T        Si     0.415000000000     0.748333333333     0.000000000000     0          
O        O      0.347000000000     0.779966666667     0.470000000000     0          
O        O      0.628666666667     0.704666666667     0.489300000000     0          
O        O      0.620233333333     0.810100000000     0.250000000000     0          
O        O      0.665266666667     0.786666666667     0.282100000000     0          
O        O      0.601033333333     0.732333333333     0.250000000000     0          
O        O      0.542666666667     0.994433333333     0.590400000000     0          
O        O      0.595766666667     0.737566666667     0.575000000000     0          
O        O      0.519000000000     0.704666666667     0.556100000000     0          
O        O      0.622933333333     0.811466666667     0.371600000000     0          
O        O      0.337066666667     0.786100000000     0.346100000000     0          
O        O      0.600400000000     0.732966666667     0.372500000000     0          
O        O      0.522166666667     0.711000000000     0.686100000000     0          
O        O      0.600333333333     0.733000000000     0.690300000000     0          
T        Si     0.556033333333     0.695966666667     0.563000000000     0          
T        Si     0.638533333333     0.778866666667     0.375000000000     0          
T        Si     0.554500000000     0.694900000000     0.687000000000     0          
T        Si     0.637900000000     0.779033333333     0.250000000000     0          
T        Si     0.333333333333     0.748333333333     0.500000000000     0          
O        O      0.653000000000     0.766300000000     0.530000000000     0          
O        O      0.371333333333     0.742666666667     0.510700000000     0          
O        O      0.334733333333     0.788066666667     0.717900000000     0          
O        O      0.457333333333     0.785100000000     0.409600000000     0          
O        O      0.404233333333     0.808466666667     0.425000000000     0          
O        O      0.481000000000     0.852333333333     0.443900000000     0          
O        O      0.377066666667     0.855200000000     0.628400000000     0          
O        O      0.662933333333     0.782366666667     0.653900000000     0          
O        O      0.399600000000     0.799233333333     0.627500000000     0          
O        O      0.477833333333     0.855500000000     0.313900000000     0          
O        O      0.399666666667     0.799333333333     0.309700000000     0          
T        Si     0.443966666667     0.806600000000     0.437000000000     0          
T        Si     0.361466666667     0.807000000000     0.625000000000     0          
T        Si     0.445500000000     0.807066666667     0.313000000000     0          
T        Si     0.362100000000     0.807800000000     0.750000000000     0          
O        O      0.553366666667     0.986333333333     0.030000000000     0          
O        O      0.628666666667     0.704666666667     0.010700000000     0          
O        O      0.546666666667     0.668066666667     0.217900000000     0          
O        O      0.338900000000     0.790666666667     0.909600000000     0          
O        O      0.595766666667     0.737566666667     0.925000000000     0          
O        O      0.628666666667     0.814333333333     0.943900000000     0          
O        O      0.521866666667     0.710400000000     0.128400000000     0          
O        O      0.547233333333     0.996266666667     0.153900000000     0          
O        O      0.600366666667     0.732933333333     0.127500000000     0          
O        O      0.622333333333     0.811166666667     0.813900000000     0          
O        O      0.600333333333     0.733000000000     0.809700000000     0          
T        Si     0.637366666667     0.777300000000     0.937000000000     0          
T        Si     0.554466666667     0.694800000000     0.125000000000     0          
T        Si     0.638433333333     0.778833333333     0.813000000000     0          
T        Si     0.554300000000     0.695433333333     0.250000000000     0          
O        O      0.567033333333     0.886700000000     0.530000000000     0          
O        O      0.590666666667     0.962000000000     0.510700000000     0          
O        O      0.545266666667     0.880000000000     0.717900000000     0          
O        O      0.548233333333     0.672233333333     0.409600000000     0          
O        O      0.524866666667     0.929100000000     0.425000000000     0          
O        O      0.481000000000     0.962000000000     0.443900000000     0          
O        O      0.478133333333     0.855200000000     0.628400000000     0          
O        O      0.550966666667     0.880566666667     0.653900000000     0          
O        O      0.534100000000     0.933700000000     0.627500000000     0          
O        O      0.477833333333     0.955666666667     0.313900000000     0          
O        O      0.534000000000     0.933666666667     0.309700000000     0          
T        Si     0.526733333333     0.970700000000     0.437000000000     0          
T        Si     0.526333333333     0.887800000000     0.625000000000     0          
T        Si     0.526266666667     0.971766666667     0.313000000000     0          
T        Si     0.525533333333     0.887633333333     0.750000000000     0          
O        O      0.347000000000     0.900366666667     0.030000000000     0          
O        O      0.628666666667     0.924000000000     0.010700000000     0          
O        O      0.665266666667     0.878600000000     0.217900000000     0          
O        O      0.542666666667     0.881566666667     0.909600000000     0          
O        O      0.595766666667     0.858200000000     0.925000000000     0          
O        O      0.519000000000     0.814333333333     0.943900000000     0          
O        O      0.622933333333     0.811466666667     0.128400000000     0          
O        O      0.337066666667     0.884300000000     0.153900000000     0          
O        O      0.600400000000     0.867433333333     0.127500000000     0          
O        O      0.522166666667     0.811166666667     0.813900000000     0          
O        O      0.600333333333     0.867333333333     0.809700000000     0          
T        Si     0.556033333333     0.860066666667     0.937000000000     0          
T        Si     0.638533333333     0.859666666667     0.125000000000     0          
T        Si     0.554500000000     0.859600000000     0.813000000000     0          
T        Si     0.637900000000     0.858866666667     0.250000000000     0          
O        O      0.446633333333     0.680333333333     0.530000000000     0          
O        O      0.371333333333     0.962000000000     0.510700000000     0          
O        O      0.453333333333     0.998600000000     0.717900000000     0          
O        O      0.661100000000     0.876000000000     0.409600000000     0          
O        O      0.404233333333     0.929100000000     0.425000000000     0          
O        O      0.371333333333     0.852333333333     0.443900000000     0          
O        O      0.478133333333     0.956266666667     0.628400000000     0          
O        O      0.452766666667     0.670400000000     0.653900000000     0          
O        O      0.399633333333     0.933733333333     0.627500000000     0          
O        O      0.377666666667     0.855500000000     0.313900000000     0          
O        O      0.399666666667     0.933666666667     0.309700000000     0          
T        Si     0.362633333333     0.889366666667     0.437000000000     0          
T        Si     0.445533333333     0.971866666667     0.625000000000     0          
T        Si     0.361566666667     0.887833333333     0.313000000000     0          
T        Si     0.445700000000     0.971233333333     0.750000000000     0          
O        O      0.432966666667     0.779966666667     0.030000000000     0          
O        O      0.409333333333     0.704666666667     0.010700000000     0          
O        O      0.454733333333     0.786666666667     0.217900000000     0          
O        O      0.451766666667     0.994433333333     0.909600000000     0          
O        O      0.475133333333     0.737566666667     0.925000000000     0          
O        O      0.519000000000     0.704666666667     0.943900000000     0          
O        O      0.521866666667     0.811466666667     0.128400000000     0          
O        O      0.449033333333     0.786100000000     0.153900000000     0          
O        O      0.465900000000     0.732966666667     0.127500000000     0          
O        O      0.522166666667     0.711000000000     0.813900000000     0          
O        O      0.466000000000     0.733000000000     0.809700000000     0          
T        Si     0.473266666667     0.695966666667     0.937000000000     0          
T        Si     0.473666666667     0.778866666667     0.125000000000     0          
T        Si     0.473733333333     0.694900000000     0.813000000000     0          
T        Si     0.474466666667     0.779033333333     0.250000000000     0          
O        O      0.432966666667     0.986333333333     0.030000000000     0          
O        O      0.454733333333     0.668066666667     0.217900000000     0          
O        O      0.451766666667     0.790666666667     0.909600000000     0          
O        O      0.449033333333     0.996266666667     0.153900000000     0          
T        Si     0.473266666667     0.777300000000     0.937000000000     0          
T        Si     0.473666666667     0.694800000000     0.125000000000     0          
T        Si     0.473733333333     0.778833333333     0.813000000000     0          
T        Si     0.415000000000     0.666666666667     0.000000000000     0          
O        O      0.446633333333     0.766300000000     0.530000000000     0          
O        O      0.453333333333     0.788066666667     0.717900000000     0          
O        O      0.661100000000     0.785100000000     0.409600000000     0          
O        O      0.452766666667     0.782366666667     0.653900000000     0          
T        Si     0.362633333333     0.806600000000     0.437000000000     0          
T        Si     0.445533333333     0.807000000000     0.625000000000     0          
T        Si     0.361566666667     0.807066666667     0.313000000000     0          
T        Si     0.415000000000     0.748333333333     0.500000000000     0          
O        O      0.347000000000     0.779966666667     0.030000000000     0          
O        O      0.665266666667     0.786666666667     0.217900000000     0          
O        O      0.542666666667     0.994433333333     0.909600000000     0          
O        O      0.337066666667     0.786100000000     0.153900000000     0          
T        Si     0.556033333333     0.695966666667     0.937000000000     0          
T        Si     0.638533333333     0.778866666667     0.125000000000     0          
T        Si     0.554500000000     0.694900000000     0.813000000000     0          
T        Si     0.333333333333     0.748333333333     0.000000000000     0          
O        O      0.567033333333     0.680333333333     0.530000000000     0          
O        O      0.545266666667     0.998600000000     0.717900000000     0          
O        O      0.548233333333     0.876000000000     0.409600000000     0          
O        O      0.550966666667     0.670400000000     0.653900000000     0          
T        Si     0.526733333333     0.889366666667     0.437000000000     0          
T        Si     0.526333333333     0.971866666667     0.625000000000     0          
T        Si     0.526266666667     0.887833333333     0.313000000000     0          
T        Si     0.585000000000     0.666666666667     0.500000000000     0          
O        O      0.553366666667     0.900366666667     0.030000000000     0          
O        O      0.546666666667     0.878600000000     0.217900000000     0          
O        O      0.338900000000     0.881566666667     0.909600000000     0          
O        O      0.547233333333     0.884300000000     0.153900000000     0          
T        Si     0.637366666667     0.860066666667     0.937000000000     0          
T        Si     0.554466666667     0.859666666667     0.125000000000     0          
T        Si     0.638433333333     0.859600000000     0.813000000000     0          
T        Si     0.585000000000     0.918333333333     0.000000000000     0          
O        O      0.653000000000     0.886700000000     0.530000000000     0          
O        O      0.334733333333     0.880000000000     0.717900000000     0          
O        O      0.457333333333     0.672233333333     0.409600000000     0          
O        O      0.662933333333     0.880566666667     0.653900000000     0          
T        Si     0.443966666667     0.970700000000     0.437000000000     0          
T        Si     0.361466666667     0.887800000000     0.625000000000     0          
T        Si     0.445500000000     0.971766666667     0.313000000000     0          
T        Si     0.333333333333     0.918333333333     0.500000000000     0          
O        O      0.347000000000     0.900366666667     0.470000000000     0          
O        O      0.665266666667     0.878600000000     0.282100000000     0          
O        O      0.542666666667     0.881566666667     0.590400000000     0          
O        O      0.337066666667     0.884300000000     0.346100000000     0          
T        Si     0.556033333333     0.860066666667     0.563000000000     0          
T        Si     0.638533333333     0.859666666667     0.375000000000     0          
T        Si     0.554500000000     0.859600000000     0.687000000000     0          
O        O      0.446633333333     0.680333333333     0.970000000000     0          
O        O      0.453333333333     0.998600000000     0.782100000000     0          
O        O      0.661100000000     0.876000000000     0.090400000000     0          
O        O      0.452766666667     0.670400000000     0.846100000000     0          
T        Si     0.362633333333     0.889366666667     0.063000000000     0          
T        Si     0.445533333333     0.971866666667     0.875000000000     0          
T        Si     0.361566666667     0.887833333333     0.187000000000     0          
O        O      0.432966666667     0.779966666667     0.470000000000     0          
O        O      0.454733333333     0.786666666667     0.282100000000     0          
O        O      0.451766666667     0.994433333333     0.590400000000     0          
O        O      0.449033333333     0.786100000000     0.346100000000     0          
T        Si     0.473266666667     0.695966666667     0.563000000000     0          
T        Si     0.473666666667     0.778866666667     0.375000000000     0          
T        Si     0.473733333333     0.694900000000     0.687000000000     0          
O        O      0.653000000000     0.766300000000     0.970000000000     0          
O        O      0.334733333333     0.788066666667     0.782100000000     0          
O        O      0.457333333333     0.785100000000     0.090400000000     0          
O        O      0.662933333333     0.782366666667     0.846100000000     0          
T        Si     0.443966666667     0.806600000000     0.063000000000     0          
T        Si     0.361466666667     0.807000000000     0.875000000000     0          
T        Si     0.445500000000     0.807066666667     0.187000000000     0          
O        O      0.553366666667     0.986333333333     0.470000000000     0          
O        O      0.546666666667     0.668066666667     0.282100000000     0          
O        O      0.338900000000     0.790666666667     0.590400000000     0          
O        O      0.547233333333     0.996266666667     0.346100000000     0          
T        Si     0.637366666667     0.777300000000     0.563000000000     0          
T        Si     0.554466666667     0.694800000000     0.375000000000     0          
T        Si     0.638433333333     0.778833333333     0.687000000000     0          
O        O      0.567033333333     0.886700000000     0.970000000000     0          
O        O      0.545266666667     0.880000000000     0.782100000000     0          
O        O      0.548233333333     0.672233333333     0.090400000000     0          
O        O      0.550966666667     0.880566666667     0.846100000000     0          
T        Si     0.526733333333     0.970700000000     0.063000000000     0          
T        Si     0.526333333333     0.887800000000     0.875000000000     0          
T        Si     0.526266666667     0.971766666667     0.187000000000     0          
O        O      0.900366666667     0.013666666667     0.970000000000     0          
O        O      0.924000000000     0.295333333333     0.989300000000     0          
O        O      0.810133333333     0.286900000000     0.750000000000     0          
O        O      0.878600000000     0.331933333333     0.782100000000     0          
O        O      0.868700000000     0.267700000000     0.750000000000     0          
O        O      0.881566666667     0.209333333333     0.090400000000     0          
O        O      0.858200000000     0.262433333333     0.075000000000     0          
O        O      0.814333333333     0.185666666667     0.056100000000     0          
O        O      0.811466666667     0.289600000000     0.871600000000     0          
O        O      0.884300000000     0.003733333333     0.846100000000     0          
O        O      0.867433333333     0.267066666667     0.872500000000     0          
O        O      0.811166666667     0.188833333333     0.186100000000     0          
O        O      0.867333333333     0.267000000000     0.190300000000     0          
T        Si     0.860066666667     0.222700000000     0.063000000000     0          
T        Si     0.859666666667     0.305200000000     0.875000000000     0          
T        Si     0.859600000000     0.221166666667     0.187000000000     0          
T        Si     0.858866666667     0.304566666667     0.750000000000     0          
T        Si     0.918333333333     0.000000000000     0.000000000000     0          
O        O      0.886700000000     0.233700000000     0.470000000000     0          
O        O      0.962000000000     0.257333333333     0.489300000000     0          
O        O      0.856566666667     0.143466666667     0.250000000000     0          
O        O      0.880000000000     0.211933333333     0.282100000000     0          
O        O      0.934333333333     0.202033333333     0.250000000000     0          
O        O      0.672233333333     0.214900000000     0.590400000000     0          
O        O      0.929100000000     0.191533333333     0.575000000000     0          
O        O      0.962000000000     0.147666666667     0.556100000000     0          
O        O      0.855200000000     0.144800000000     0.371600000000     0          
O        O      0.880566666667     0.217633333333     0.346100000000     0          
O        O      0.933700000000     0.200766666667     0.372500000000     0          
O        O      0.955666666667     0.144500000000     0.686100000000     0          
O        O      0.933666666667     0.200666666667     0.690300000000     0          
T        Si     0.970700000000     0.193400000000     0.563000000000     0          
T        Si     0.887800000000     0.193000000000     0.375000000000     0          
T        Si     0.971766666667     0.192933333333     0.687000000000     0          
T        Si     0.887633333333     0.192200000000     0.250000000000     0          
T        Si     0.918333333333     0.251666666667     0.500000000000     0          
O        O      0.986333333333     0.220033333333     0.970000000000     0          
O        O      0.704666666667     0.295333333333     0.989300000000     0          
O        O      0.713100000000     0.189900000000     0.750000000000     0          
O        O      0.668066666667     0.213333333333     0.782100000000     0          
O        O      0.732300000000     0.267666666667     0.750000000000     0          
O        O      0.790666666667     0.005566666667     0.090400000000     0          
O        O      0.737566666667     0.262433333333     0.075000000000     0          
O        O      0.814333333333     0.295333333333     0.056100000000     0          
O        O      0.710400000000     0.188533333333     0.871600000000     0          
O        O      0.996266666667     0.213900000000     0.846100000000     0          
O        O      0.732933333333     0.267033333333     0.872500000000     0          
O        O      0.811166666667     0.289000000000     0.186100000000     0          
O        O      0.733000000000     0.267000000000     0.190300000000     0          
T        Si     0.777300000000     0.304033333333     0.063000000000     0          
T        Si     0.694800000000     0.221133333333     0.875000000000     0          
T        Si     0.778833333333     0.305100000000     0.187000000000     0          
T        Si     0.695433333333     0.220966666667     0.750000000000     0          
T        Si     0.666666666667     0.251666666667     0.000000000000     0          
O        O      0.766300000000     0.319666666667     0.470000000000     0          
O        O      0.742666666667     0.038000000000     0.489300000000     0          
O        O      0.856533333333     0.046433333333     0.250000000000     0          
O        O      0.788066666667     0.001400000000     0.282100000000     0          
O        O      0.797966666667     0.065633333333     0.250000000000     0          
O        O      0.785100000000     0.124000000000     0.590400000000     0          
O        O      0.808466666667     0.070900000000     0.575000000000     0          
O        O      0.852333333333     0.147666666667     0.556100000000     0          
O        O      0.855200000000     0.043733333333     0.371600000000     0          
O        O      0.782366666667     0.329600000000     0.346100000000     0          
O        O      0.799233333333     0.066266666667     0.372500000000     0          
O        O      0.855500000000     0.144500000000     0.686100000000     0          
O        O      0.799333333333     0.066333333333     0.690300000000     0          
T        Si     0.806600000000     0.110633333333     0.563000000000     0          
T        Si     0.807000000000     0.028133333333     0.375000000000     0          
T        Si     0.807066666667     0.112166666667     0.687000000000     0          
T        Si     0.807800000000     0.028766666667     0.250000000000     0          
T        Si     0.748333333333     0.000000000000     0.500000000000     0          
O        O      0.779966666667     0.099633333333     0.970000000000     0          
O        O      0.704666666667     0.076000000000     0.989300000000     0          
O        O      0.810100000000     0.189866666667     0.750000000000     0          
O        O      0.786666666667     0.121400000000     0.782100000000     0          
O        O      0.732333333333     0.131300000000     0.750000000000     0          
O        O      0.994433333333     0.118433333333     0.090400000000     0          
O        O      0.737566666667     0.141800000000     0.075000000000     0          
O        O      0.704666666667     0.185666666667     0.056100000000     0          
O        O      0.811466666667     0.188533333333     0.871600000000     0          
O        O      0.786100000000     0.115700000000     0.846100000000     0          
O        O      0.732966666667     0.132566666667     0.872500000000     0          
O        O      0.711000000000     0.188833333333     0.186100000000     0          
O        O      0.733000000000     0.132666666667     0.190300000000     0          
T        Si     0.695966666667     0.139933333333     0.063000000000     0          
T        Si     0.778866666667     0.140333333333     0.875000000000     0          
T        Si     0.694900000000     0.140400000000     0.187000000000     0          
T        Si     0.779033333333     0.141133333333     0.750000000000     0          
T        Si     0.748333333333     0.081666666667     0.000000000000     0          
O        O      0.680333333333     0.113300000000     0.470000000000     0          
O        O      0.962000000000     0.038000000000     0.489300000000     0          
O        O      0.953566666667     0.143433333333     0.250000000000     0          
O        O      0.998600000000     0.120000000000     0.282100000000     0          
O        O      0.934366666667     0.065666666667     0.250000000000     0          
O        O      0.876000000000     0.327766666667     0.590400000000     0          
O        O      0.929100000000     0.070900000000     0.575000000000     0          
O        O      0.852333333333     0.038000000000     0.556100000000     0          
O        O      0.956266666667     0.144800000000     0.371600000000     0          
O        O      0.670400000000     0.119433333333     0.346100000000     0          
O        O      0.933733333333     0.066300000000     0.372500000000     0          
O        O      0.855500000000     0.044333333333     0.686100000000     0          
O        O      0.933666666667     0.066333333333     0.690300000000     0          
T        Si     0.889366666667     0.029300000000     0.563000000000     0          
T        Si     0.971866666667     0.112200000000     0.375000000000     0          
T        Si     0.887833333333     0.028233333333     0.687000000000     0          
T        Si     0.971233333333     0.112366666667     0.250000000000     0          
T        Si     0.666666666667     0.081666666667     0.500000000000     0          
O        O      0.986333333333     0.099633333333     0.530000000000     0          
O        O      0.704666666667     0.076000000000     0.510700000000     0          
O        O      0.668066666667     0.121400000000     0.717900000000     0          
O        O      0.790666666667     0.118433333333     0.409600000000     0          
O        O      0.737566666667     0.141800000000     0.425000000000     0          
O        O      0.814333333333     0.185666666667     0.443900000000     0          
O        O      0.710400000000     0.188533333333     0.628400000000     0          
O        O      0.996266666667     0.115700000000     0.653900000000     0          
O        O      0.732933333333     0.132566666667     0.627500000000     0          
O        O      0.811166666667     0.188833333333     0.313900000000     0          
O        O      0.733000000000     0.132666666667     0.309700000000     0          
T        Si     0.777300000000     0.139933333333     0.437000000000     0          
T        Si     0.694800000000     0.140333333333     0.625000000000     0          
T        Si     0.778833333333     0.140400000000     0.313000000000     0          
T        Si     0.695433333333     0.141133333333     0.750000000000     0          
O        O      0.886700000000     0.319666666667     0.030000000000     0          
O        O      0.962000000000     0.038000000000     0.010700000000     0          
O        O      0.880000000000     0.001400000000     0.217900000000     0          
O        O      0.672233333333     0.124000000000     0.909600000000     0          
O        O      0.929100000000     0.070900000000     0.925000000000     0          
O        O      0.962000000000     0.147666666667     0.943900000000     0          
O        O      0.855200000000     0.043733333333     0.128400000000     0          
O        O      0.880566666667     0.329600000000     0.153900000000     0          
O        O      0.933700000000     0.066266666667     0.127500000000     0          
O        O      0.955666666667     0.144500000000     0.813900000000     0          
O        O      0.933666666667     0.066333333333     0.809700000000     0          
T        Si     0.970700000000     0.110633333333     0.937000000000     0          
T        Si     0.887800000000     0.028133333333     0.125000000000     0          
T        Si     0.971766666667     0.112166666667     0.813000000000     0          
T        Si     0.887633333333     0.028766666667     0.250000000000     0          
O        O      0.900366666667     0.220033333333     0.530000000000     0          
O        O      0.924000000000     0.295333333333     0.510700000000     0          
O        O      0.878600000000     0.213333333333     0.717900000000     0          
O        O      0.881566666667     0.005566666667     0.409600000000     0          
O        O      0.858200000000     0.262433333333     0.425000000000     0          
O        O      0.814333333333     0.295333333333     0.443900000000     0          
O        O      0.811466666667     0.188533333333     0.628400000000     0          
O        O      0.884300000000     0.213900000000     0.653900000000     0          
O        O      0.867433333333     0.267033333333     0.627500000000     0          
O        O      0.811166666667     0.289000000000     0.313900000000     0          
O        O      0.867333333333     0.267000000000     0.309700000000     0          
T        Si     0.860066666667     0.304033333333     0.437000000000     0          
T        Si     0.859666666667     0.221133333333     0.625000000000     0          
T        Si     0.859600000000     0.305100000000     0.313000000000     0          
T        Si     0.858866666667     0.220966666667     0.750000000000     0          
O        O      0.680333333333     0.233700000000     0.030000000000     0          
O        O      0.962000000000     0.257333333333     0.010700000000     0          
O        O      0.998600000000     0.211933333333     0.217900000000     0          
O        O      0.876000000000     0.214900000000     0.909600000000     0          
O        O      0.929100000000     0.191533333333     0.925000000000     0          
O        O      0.852333333333     0.147666666667     0.943900000000     0          
O        O      0.956266666667     0.144800000000     0.128400000000     0          
O        O      0.670400000000     0.217633333333     0.153900000000     0          
O        O      0.933733333333     0.200766666667     0.127500000000     0          
O        O      0.855500000000     0.144500000000     0.813900000000     0          
O        O      0.933666666667     0.200666666667     0.809700000000     0          
T        Si     0.889366666667     0.193400000000     0.937000000000     0          
T        Si     0.971866666667     0.193000000000     0.125000000000     0          
T        Si     0.887833333333     0.192933333333     0.813000000000     0          
T        Si     0.971233333333     0.192200000000     0.250000000000     0          
O        O      0.779966666667     0.013666666667     0.530000000000     0          
O        O      0.704666666667     0.295333333333     0.510700000000     0          
O        O      0.786666666667     0.331933333333     0.717900000000     0          
O        O      0.994433333333     0.209333333333     0.409600000000     0          
O        O      0.737566666667     0.262433333333     0.425000000000     0          
O        O      0.704666666667     0.185666666667     0.443900000000     0          
O        O      0.811466666667     0.289600000000     0.628400000000     0          
O        O      0.786100000000     0.003733333333     0.653900000000     0          
O        O      0.732966666667     0.267066666667     0.627500000000     0          
O        O      0.711000000000     0.188833333333     0.313900000000     0          
O        O      0.733000000000     0.267000000000     0.309700000000     0          
T        Si     0.695966666667     0.222700000000     0.437000000000     0          
T        Si     0.778866666667     0.305200000000     0.625000000000     0          
T        Si     0.694900000000     0.221166666667     0.313000000000     0          
T        Si     0.779033333333     0.304566666667     0.750000000000     0          
O        O      0.766300000000     0.113300000000     0.030000000000     0          
O        O      0.742666666667     0.038000000000     0.010700000000     0          
O        O      0.788066666667     0.120000000000     0.217900000000     0          
O        O      0.785100000000     0.327766666667     0.909600000000     0          
O        O      0.808466666667     0.070900000000     0.925000000000     0          
O        O      0.852333333333     0.038000000000     0.943900000000     0          
O        O      0.855200000000     0.144800000000     0.128400000000     0          
O        O      0.782366666667     0.119433333333     0.153900000000     0          
O        O      0.799233333333     0.066300000000     0.127500000000     0          
O        O      0.855500000000     0.044333333333     0.813900000000     0          
O        O      0.799333333333     0.066333333333     0.809700000000     0          
T        Si     0.806600000000     0.029300000000     0.937000000000     0          
T        Si     0.807000000000     0.112200000000     0.125000000000     0          
T        Si     0.807066666667     0.028233333333     0.813000000000     0          
T        Si     0.807800000000     0.112366666667     0.250000000000     0          
O        O      0.766300000000     0.319666666667     0.030000000000     0          
O        O      0.788066666667     0.001400000000     0.217900000000     0          
O        O      0.785100000000     0.124000000000     0.909600000000     0          
O        O      0.782366666667     0.329600000000     0.153900000000     0          
T        Si     0.806600000000     0.110633333333     0.937000000000     0          
T        Si     0.807000000000     0.028133333333     0.125000000000     0          
T        Si     0.807066666667     0.112166666667     0.813000000000     0          
T        Si     0.748333333333     0.000000000000     0.000000000000     0          
O        O      0.779966666667     0.099633333333     0.530000000000     0          
O        O      0.786666666667     0.121400000000     0.717900000000     0          
O        O      0.994433333333     0.118433333333     0.409600000000     0          
O        O      0.786100000000     0.115700000000     0.653900000000     0          
T        Si     0.695966666667     0.139933333333     0.437000000000     0          
T        Si     0.778866666667     0.140333333333     0.625000000000     0          
T        Si     0.694900000000     0.140400000000     0.313000000000     0          
T        Si     0.748333333333     0.081666666667     0.500000000000     0          
O        O      0.680333333333     0.113300000000     0.030000000000     0          
O        O      0.998600000000     0.120000000000     0.217900000000     0          
O        O      0.876000000000     0.327766666667     0.909600000000     0          
O        O      0.670400000000     0.119433333333     0.153900000000     0          
T        Si     0.889366666667     0.029300000000     0.937000000000     0          
T        Si     0.971866666667     0.112200000000     0.125000000000     0          
T        Si     0.887833333333     0.028233333333     0.813000000000     0          
T        Si     0.666666666667     0.081666666667     0.000000000000     0          
O        O      0.900366666667     0.013666666667     0.530000000000     0          
O        O      0.878600000000     0.331933333333     0.717900000000     0          
O        O      0.881566666667     0.209333333333     0.409600000000     0          
O        O      0.884300000000     0.003733333333     0.653900000000     0          
T        Si     0.860066666667     0.222700000000     0.437000000000     0          
T        Si     0.859666666667     0.305200000000     0.625000000000     0          
T        Si     0.859600000000     0.221166666667     0.313000000000     0          
T        Si     0.918333333333     0.000000000000     0.500000000000     0          
O        O      0.886700000000     0.233700000000     0.030000000000     0          
O        O      0.880000000000     0.211933333333     0.217900000000     0          
O        O      0.672233333333     0.214900000000     0.909600000000     0          
O        O      0.880566666667     0.217633333333     0.153900000000     0          
T        Si     0.970700000000     0.193400000000     0.937000000000     0          
T        Si     0.887800000000     0.193000000000     0.125000000000     0          
T        Si     0.971766666667     0.192933333333     0.813000000000     0          
T        Si     0.918333333333     0.251666666667     0.000000000000     0          
O        O      0.986333333333     0.220033333333     0.530000000000     0          
O        O      0.668066666667     0.213333333333     0.717900000000     0          
O        O      0.790666666667     0.005566666667     0.409600000000     0          
O        O      0.996266666667     0.213900000000     0.653900000000     0          
T        Si     0.777300000000     0.304033333333     0.437000000000     0          
T        Si     0.694800000000     0.221133333333     0.625000000000     0          
T        Si     0.778833333333     0.305100000000     0.313000000000     0          
T        Si     0.666666666667     0.251666666667     0.500000000000     0          
O        O      0.680333333333     0.233700000000     0.470000000000     0          
O        O      0.998600000000     0.211933333333     0.282100000000     0          
O        O      0.876000000000     0.214900000000     0.590400000000     0          
O        O      0.670400000000     0.217633333333     0.346100000000     0          
T        Si     0.889366666667     0.193400000000     0.563000000000     0          
T        Si     0.971866666667     0.193000000000     0.375000000000     0          
T        Si     0.887833333333     0.192933333333     0.687000000000     0          
O        O      0.779966666667     0.013666666667     0.970000000000     0          
O        O      0.786666666667     0.331933333333     0.782100000000     0          
O        O      0.994433333333     0.209333333333     0.090400000000     0          
O        O      0.786100000000     0.003733333333     0.846100000000     0          
T        Si     0.695966666667     0.222700000000     0.063000000000     0          
T        Si     0.778866666667     0.305200000000     0.875000000000     0          
T        Si     0.694900000000     0.221166666667     0.187000000000     0          
O        O      0.766300000000     0.113300000000     0.470000000000     0          
O        O      0.788066666667     0.120000000000     0.282100000000     0          
O        O      0.785100000000     0.327766666667     0.590400000000     0          
O        O      0.782366666667     0.119433333333     0.346100000000     0          
T        Si     0.806600000000     0.029300000000     0.563000000000     0          
T        Si     0.807000000000     0.112200000000     0.375000000000     0          
T        Si     0.807066666667     0.028233333333     0.687000000000     0          
O        O      0.986333333333     0.099633333333     0.970000000000     0          
O        O      0.668066666667     0.121400000000     0.782100000000     0          
O        O      0.790666666667     0.118433333333     0.090400000000     0          
O        O      0.996266666667     0.115700000000     0.846100000000     0          
T        Si     0.777300000000     0.139933333333     0.063000000000     0          
T        Si     0.694800000000     0.140333333333     0.875000000000     0          
T        Si     0.778833333333     0.140400000000     0.187000000000     0          
O        O      0.886700000000     0.319666666667     0.470000000000     0          
O        O      0.880000000000     0.001400000000     0.282100000000     0          
O        O      0.672233333333     0.124000000000     0.590400000000     0          
O        O      0.880566666667     0.329600000000     0.346100000000     0          
T        Si     0.970700000000     0.110633333333     0.563000000000     0          
T        Si     0.887800000000     0.028133333333     0.375000000000     0          
T        Si     0.971766666667     0.112166666667     0.687000000000     0          
O        O      0.900366666667     0.220033333333     0.970000000000     0          
O        O      0.878600000000     0.213333333333     0.782100000000     0          
O        O      0.881566666667     0.005566666667     0.090400000000     0          
O        O      0.884300000000     0.213900000000     0.846100000000     0          
T        Si     0.860066666667     0.304033333333     0.063000000000     0          
T        Si     0.859666666667     0.221133333333     0.875000000000     0          
T        Si     0.859600000000     0.305100000000     0.187000000000     0          
O        O      0.900366666667     0.347000000000     0.970000000000     0          
O        O      0.924000000000     0.628666666667     0.989300000000     0          
O        O      0.810133333333     0.620233333333     0.750000000000     0          
O        O      0.878600000000     0.665266666667     0.782100000000     0          
O        O      0.868700000000     0.601033333333     0.750000000000     0          
O        O      0.881566666667     0.542666666667     0.090400000000     0          
O        O      0.858200000000     0.595766666667     0.075000000000     0          
O        O      0.814333333333     0.519000000000     0.056100000000     0          
O        O      0.811466666667     0.622933333333     0.871600000000     0          
O        O      0.884300000000     0.337066666667     0.846100000000     0          
O        O      0.867433333333     0.600400000000     0.872500000000     0          
O        O      0.811166666667     0.522166666667     0.186100000000     0          
O        O      0.867333333333     0.600333333333     0.190300000000     0          
T        Si     0.860066666667     0.556033333333     0.063000000000     0          
T        Si     0.859666666667     0.638533333333     0.875000000000     0          
T        Si     0.859600000000     0.554500000000     0.187000000000     0          
T        Si     0.858866666667     0.637900000000     0.750000000000     0          
T        Si     0.918333333333     0.333333333333     0.000000000000     0          
O        O      0.886700000000     0.567033333333     0.470000000000     0          
O        O      0.962000000000     0.590666666667     0.489300000000     0          
O        O      0.856566666667     0.476800000000     0.250000000000     0          
O        O      0.880000000000     0.545266666667     0.282100000000     0          
O        O      0.934333333333     0.535366666667     0.250000000000     0          
O        O      0.672233333333     0.548233333333     0.590400000000     0          
O        O      0.929100000000     0.524866666667     0.575000000000     0          
O        O      0.962000000000     0.481000000000     0.556100000000     0          
O        O      0.855200000000     0.478133333333     0.371600000000     0          
O        O      0.880566666667     0.550966666667     0.346100000000     0          
O        O      0.933700000000     0.534100000000     0.372500000000     0          
O        O      0.955666666667     0.477833333333     0.686100000000     0          
O        O      0.933666666667     0.534000000000     0.690300000000     0          
T        Si     0.970700000000     0.526733333333     0.563000000000     0          
T        Si     0.887800000000     0.526333333333     0.375000000000     0          
T        Si     0.971766666667     0.526266666667     0.687000000000     0          
T        Si     0.887633333333     0.525533333333     0.250000000000     0          
T        Si     0.918333333333     0.585000000000     0.500000000000     0          
O        O      0.986333333333     0.553366666667     0.970000000000     0          
O        O      0.704666666667     0.628666666667     0.989300000000     0          
O        O      0.713100000000     0.523233333333     0.750000000000     0          
O        O      0.668066666667     0.546666666667     0.782100000000     0          
O        O      0.732300000000     0.601000000000     0.750000000000     0          
O        O      0.790666666667     0.338900000000     0.090400000000     0          
O        O      0.737566666667     0.595766666667     0.075000000000     0          
O        O      0.814333333333     0.628666666667     0.056100000000     0          
O        O      0.710400000000     0.521866666667     0.871600000000     0          
O        O      0.996266666667     0.547233333333     0.846100000000     0          
O        O      0.732933333333     0.600366666667     0.872500000000     0          
O        O      0.811166666667     0.622333333333     0.186100000000     0          
O        O      0.733000000000     0.600333333333     0.190300000000     0          
T        Si     0.777300000000     0.637366666667     0.063000000000     0          
T        Si     0.694800000000     0.554466666667     0.875000000000     0          
T        Si     0.778833333333     0.638433333333     0.187000000000     0          
T        Si     0.695433333333     0.554300000000     0.750000000000     0          
T        Si     0.666666666667     0.585000000000     0.000000000000     0          
O        O      0.766300000000     0.653000000000     0.470000000000     0          
O        O      0.742666666667     0.371333333333     0.489300000000     0          
O        O      0.856533333333     0.379766666667     0.250000000000     0          
O        O      0.788066666667     0.334733333333     0.282100000000     0          
O        O      0.797966666667     0.398966666667     0.250000000000     0          
O        O      0.785100000000     0.457333333333     0.590400000000     0          
O        O      0.808466666667     0.404233333333     0.575000000000     0          
O        O      0.852333333333     0.481000000000     0.556100000000     0          
O        O      0.855200000000     0.377066666667     0.371600000000     0          
O        O      0.782366666667     0.662933333333     0.346100000000     0          
O        O      0.799233333333     0.399600000000     0.372500000000     0          
O        O      0.855500000000     0.477833333333     0.686100000000     0          
O        O      0.799333333333     0.399666666667     0.690300000000     0          
T        Si     0.806600000000     0.443966666667     0.563000000000     0          
T        Si     0.807000000000     0.361466666667     0.375000000000     0          
T        Si     0.807066666667     0.445500000000     0.687000000000     0          
T        Si     0.807800000000     0.362100000000     0.250000000000     0          
T        Si     0.748333333333     0.333333333333     0.500000000000     0          
O        O      0.779966666667     0.432966666667     0.970000000000     0          
O        O      0.704666666667     0.409333333333     0.989300000000     0          
O        O      0.810100000000     0.523200000000     0.750000000000     0          
O        O      0.786666666667     0.454733333333     0.782100000000     0          
O        O      0.732333333333     0.464633333333     0.750000000000     0          
O        O      0.994433333333     0.451766666667     0.090400000000     0          
O        O      0.737566666667     0.475133333333     0.075000000000     0          
O        O      0.704666666667     0.519000000000     0.056100000000     0          
O        O      0.811466666667     0.521866666667     0.871600000000     0          
O        O      0.786100000000     0.449033333333     0.846100000000     0          
O        O      0.732966666667     0.465900000000     0.872500000000     0          
O        O      0.711000000000     0.522166666667     0.186100000000     0          
O        O      0.733000000000     0.466000000000     0.190300000000     0          
T        Si     0.695966666667     0.473266666667     0.063000000000     0          
T        Si     0.778866666667     0.473666666667     0.875000000000     0          
T        Si     0.694900000000     0.473733333333     0.187000000000     0          
T        Si     0.779033333333     0.474466666667     0.750000000000     0          
T        Si     0.748333333333     0.415000000000     0.000000000000     0          
O        O      0.680333333333     0.446633333333     0.470000000000     0          
O        O      0.962000000000     0.371333333333     0.489300000000     0          
O        O      0.953566666667     0.476766666667     0.250000000000     0          
O        O      0.998600000000     0.453333333333     0.282100000000     0          
O        O      0.934366666667     0.399000000000     0.250000000000     0          
O        O      0.876000000000     0.661100000000     0.590400000000     0          
O        O      0.929100000000     0.404233333333     0.575000000000     0          
O        O      0.852333333333     0.371333333333     0.556100000000     0          
O        O      0.956266666667     0.478133333333     0.371600000000     0          
O        O      0.670400000000     0.452766666667     0.346100000000     0          
O        O      0.933733333333     0.399633333333     0.372500000000     0          
O        O      0.855500000000     0.377666666667     0.686100000000     0          
O        O      0.933666666667     0.399666666667     0.690300000000     0          
T        Si     0.889366666667     0.362633333333     0.563000000000     0          
T        Si     0.971866666667     0.445533333333     0.375000000000     0          
T        Si     0.887833333333     0.361566666667     0.687000000000     0          
T        Si     0.971233333333     0.445700000000     0.250000000000     0          
T        Si     0.666666666667     0.415000000000     0.500000000000     0          
O        O      0.986333333333     0.432966666667     0.530000000000     0          
O        O      0.704666666667     0.409333333333     0.510700000000     0          
O        O      0.668066666667     0.454733333333     0.717900000000     0          
O        O      0.790666666667     0.451766666667     0.409600000000     0          
O        O      0.737566666667     0.475133333333     0.425000000000     0          
O        O      0.814333333333     0.519000000000     0.443900000000     0          
O        O      0.710400000000     0.521866666667     0.628400000000     0          
O        O      0.996266666667     0.449033333333     0.653900000000     0          
O        O      0.732933333333     0.465900000000     0.627500000000     0          
O        O      0.811166666667     0.522166666667     0.313900000000     0          
O        O      0.733000000000     0.466000000000     0.309700000000     0          
T        Si     0.777300000000     0.473266666667     0.437000000000     0          
T        Si     0.694800000000     0.473666666667     0.625000000000     0          
T        Si     0.778833333333     0.473733333333     0.313000000000     0          
T        Si     0.695433333333     0.474466666667     0.750000000000     0          
O        O      0.886700000000     0.653000000000     0.030000000000     0          
O        O      0.962000000000     0.371333333333     0.010700000000     0          
O        O      0.880000000000     0.334733333333     0.217900000000     0          
O        O      0.672233333333     0.457333333333     0.909600000000     0          
O        O      0.929100000000     0.404233333333     0.925000000000     0          
O        O      0.962000000000     0.481000000000     0.943900000000     0          
O        O      0.855200000000     0.377066666667     0.128400000000     0          
O        O      0.880566666667     0.662933333333     0.153900000000     0          
O        O      0.933700000000     0.399600000000     0.127500000000     0          
O        O      0.955666666667     0.477833333333     0.813900000000     0          
O        O      0.933666666667     0.399666666667     0.809700000000     0          
T        Si     0.970700000000     0.443966666667     0.937000000000     0          
T        Si     0.887800000000     0.361466666667     0.125000000000     0          
T        Si     0.971766666667     0.445500000000     0.813000000000     0          
T        Si     0.887633333333     0.362100000000     0.250000000000     0          
O        O      0.900366666667     0.553366666667     0.530000000000     0          
O        O      0.924000000000     0.628666666667     0.510700000000     0          
O        O      0.878600000000     0.546666666667     0.717900000000     0          
O        O      0.881566666667     0.338900000000     0.409600000000     0          
O        O      0.858200000000     0.595766666667     0.425000000000     0          
O        O      0.814333333333     0.628666666667     0.443900000000     0          
O        O      0.811466666667     0.521866666667     0.628400000000     0          
O        O      0.884300000000     0.547233333333     0.653900000000     0          
O        O      0.867433333333     0.600366666667     0.627500000000     0          
O        O      0.811166666667     0.622333333333     0.313900000000     0          
O        O      0.867333333333     0.600333333333     0.309700000000     0          
T        Si     0.860066666667     0.637366666667     0.437000000000     0          
T        Si     0.859666666667     0.554466666667     0.625000000000     0          
T        Si     0.859600000000     0.638433333333     0.313000000000     0          
T        Si     0.858866666667     0.554300000000     0.750000000000     0          
O        O      0.680333333333     0.567033333333     0.030000000000     0          
O        O      0.962000000000     0.590666666667     0.010700000000     0          
O        O      0.998600000000     0.545266666667     0.217900000000     0          
O        O      0.876000000000     0.548233333333     0.909600000000     0          
O        O      0.929100000000     0.524866666667     0.925000000000     0          
O        O      0.852333333333     0.481000000000     0.943900000000     0          
O        O      0.956266666667     0.478133333333     0.128400000000     0          
O        O      0.670400000000     0.550966666667     0.153900000000     0          
O        O      0.933733333333     0.534100000000     0.127500000000     0          
O        O      0.855500000000     0.477833333333     0.813900000000     0          
O        O      0.933666666667     0.534000000000     0.809700000000     0          
T        Si     0.889366666667     0.526733333333     0.937000000000     0          
T        Si     0.971866666667     0.526333333333     0.125000000000     0          
T        Si     0.887833333333     0.526266666667     0.813000000000     0          
T        Si     0.971233333333     0.525533333333     0.250000000000     0          
O        O      0.779966666667     0.347000000000     0.530000000000     0          
O        O      0.704666666667     0.628666666667     0.510700000000     0          
O        O      0.786666666667     0.665266666667     0.717900000000     0          
O        O      0.994433333333     0.542666666667     0.409600000000     0          
O        O      0.737566666667     0.595766666667     0.425000000000     0          
O        O      0.704666666667     0.519000000000     0.443900000000     0          
O        O      0.811466666667     0.622933333333     0.628400000000     0          
O        O      0.786100000000     0.337066666667     0.653900000000     0          
O        O      0.732966666667     0.600400000000     0.627500000000     0          
O        O      0.711000000000     0.522166666667     0.313900000000     0          
O        O      0.733000000000     0.600333333333     0.309700000000     0          
T        Si     0.695966666667     0.556033333333     0.437000000000     0          
T        Si     0.778866666667     0.638533333333     0.625000000000     0          
T        Si     0.694900000000     0.554500000000     0.313000000000     0          
T        Si     0.779033333333     0.637900000000     0.750000000000     0          
O        O      0.766300000000     0.446633333333     0.030000000000     0          
O        O      0.742666666667     0.371333333333     0.010700000000     0          
O        O      0.788066666667     0.453333333333     0.217900000000     0          
O        O      0.785100000000     0.661100000000     0.909600000000     0          
O        O      0.808466666667     0.404233333333     0.925000000000     0          
O        O      0.852333333333     0.371333333333     0.943900000000     0          
O        O      0.855200000000     0.478133333333     0.128400000000     0          
O        O      0.782366666667     0.452766666667     0.153900000000     0          
O        O      0.799233333333     0.399633333333     0.127500000000     0          
O        O      0.855500000000     0.377666666667     0.813900000000     0          
O        O      0.799333333333     0.399666666667     0.809700000000     0          
T        Si     0.806600000000     0.362633333333     0.937000000000     0          
T        Si     0.807000000000     0.445533333333     0.125000000000     0          
T        Si     0.807066666667     0.361566666667     0.813000000000     0          
T        Si     0.807800000000     0.445700000000     0.250000000000     0          
O        O      0.766300000000     0.653000000000     0.030000000000     0          
O        O      0.788066666667     0.334733333333     0.217900000000     0          
O        O      0.785100000000     0.457333333333     0.909600000000     0          
O        O      0.782366666667     0.662933333333     0.153900000000     0          
T        Si     0.806600000000     0.443966666667     0.937000000000     0          
T        Si     0.807000000000     0.361466666667     0.125000000000     0          
T        Si     0.807066666667     0.445500000000     0.813000000000     0          
T        Si     0.748333333333     0.333333333333     0.000000000000     0          
O        O      0.779966666667     0.432966666667     0.530000000000     0          
O        O      0.786666666667     0.454733333333     0.717900000000     0          
O        O      0.994433333333     0.451766666667     0.409600000000     0          
O        O      0.786100000000     0.449033333333     0.653900000000     0          
T        Si     0.695966666667     0.473266666667     0.437000000000     0          
T        Si     0.778866666667     0.473666666667     0.625000000000     0          
T        Si     0.694900000000     0.473733333333     0.313000000000     0          
T        Si     0.748333333333     0.415000000000     0.500000000000     0          
O        O      0.680333333333     0.446633333333     0.030000000000     0          
O        O      0.998600000000     0.453333333333     0.217900000000     0          
O        O      0.876000000000     0.661100000000     0.909600000000     0          
O        O      0.670400000000     0.452766666667     0.153900000000     0          
T        Si     0.889366666667     0.362633333333     0.937000000000     0          
T        Si     0.971866666667     0.445533333333     0.125000000000     0          
T        Si     0.887833333333     0.361566666667     0.813000000000     0          
T        Si     0.666666666667     0.415000000000     0.000000000000     0          
O        O      0.900366666667     0.347000000000     0.530000000000     0          
O        O      0.878600000000     0.665266666667     0.717900000000     0          
O        O      0.881566666667     0.542666666667     0.409600000000     0          
O        O      0.884300000000     0.337066666667     0.653900000000     0          
T        Si     0.860066666667     0.556033333333     0.437000000000     0          
T        Si     0.859666666667     0.638533333333     0.625000000000     0          
T        Si     0.859600000000     0.554500000000     0.313000000000     0          
T        Si     0.918333333333     0.333333333333     0.500000000000     0          
O        O      0.886700000000     0.567033333333     0.030000000000     0          
O        O      0.880000000000     0.545266666667     0.217900000000     0          
O        O      0.672233333333     0.548233333333     0.909600000000     0          
O        O      0.880566666667     0.550966666667     0.153900000000     0          
T        Si     0.970700000000     0.526733333333     0.937000000000     0          
T        Si     0.887800000000     0.526333333333     0.125000000000     0          
T        Si     0.971766666667     0.526266666667     0.813000000000     0          
T        Si     0.918333333333     0.585000000000     0.000000000000     0          
O        O      0.986333333333     0.553366666667     0.530000000000     0          
O        O      0.668066666667     0.546666666667     0.717900000000     0          
O        O      0.790666666667     0.338900000000     0.409600000000     0          
O        O      0.996266666667     0.547233333333     0.653900000000     0          
T        Si     0.777300000000     0.637366666667     0.437000000000     0          
T        Si     0.694800000000     0.554466666667     0.625000000000     0          
T        Si     0.778833333333     0.638433333333     0.313000000000     0          
T        Si     0.666666666667     0.585000000000     0.500000000000     0          
O        O      0.680333333333     0.567033333333     0.470000000000     0          
O        O      0.998600000000     0.545266666667     0.282100000000     0          
O        O      0.876000000000     0.548233333333     0.590400000000     0          
O        O      0.670400000000     0.550966666667     0.346100000000     0          
T        Si     0.889366666667     0.526733333333     0.563000000000     0          
T        Si     0.971866666667     0.526333333333     0.375000000000     0          
T        Si     0.887833333333     0.526266666667     0.687000000000     0          
O        O      0.779966666667     0.347000000000     0.970000000000     0          
O        O      0.786666666667     0.665266666667     0.782100000000     0          
O        O      0.994433333333     0.542666666667     0.090400000000     0          
O        O      0.786100000000     0.337066666667     0.846100000000     0          
T        Si     0.695966666667     0.556033333333     0.063000000000     0          
T        Si     0.778866666667     0.638533333333     0.875000000000     0          
T        Si     0.694900000000     0.554500000000     0.187000000000     0          
O        O      0.766300000000     0.446633333333     0.470000000000     0          
O        O      0.788066666667     0.453333333333     0.282100000000     0          
O        O      0.785100000000     0.661100000000     0.590400000000     0          
O        O      0.782366666667     0.452766666667     0.346100000000     0          
T        Si     0.806600000000     0.362633333333     0.563000000000     0          
T        Si     0.807000000000     0.445533333333     0.375000000000     0          
T        Si     0.807066666667     0.361566666667     0.687000000000     0          
O        O      0.986333333333     0.432966666667     0.970000000000     0          
O        O      0.668066666667     0.454733333333     0.782100000000     0          
O        O      0.790666666667     0.451766666667     0.090400000000     0          
O        O      0.996266666667     0.449033333333     0.846100000000     0          
T        Si     0.777300000000     0.473266666667     0.063000000000     0          
T        Si     0.694800000000     0.473666666667     0.875000000000     0          
T        Si     0.778833333333     0.473733333333     0.187000000000     0          
O        O      0.886700000000     0.653000000000     0.470000000000     0          
O        O      0.880000000000     0.334733333333     0.282100000000     0          
O        O      0.672233333333     0.457333333333     0.590400000000     0          
O        O      0.880566666667     0.662933333333     0.346100000000     0          
T        Si     0.970700000000     0.443966666667     0.563000000000     0          
T        Si     0.887800000000     0.361466666667     0.375000000000     0          
T        Si     0.971766666667     0.445500000000     0.687000000000     0          
O        O      0.900366666667     0.553366666667     0.970000000000     0          
O        O      0.878600000000     0.546666666667     0.782100000000     0          
O        O      0.881566666667     0.338900000000     0.090400000000     0          
O        O      0.884300000000     0.547233333333     0.846100000000     0          
T        Si     0.860066666667     0.637366666667     0.063000000000     0          
T        Si     0.859666666667     0.554466666667     0.875000000000     0          
T        Si     0.859600000000     0.638433333333     0.187000000000     0          
O        O      0.900366666667     0.680333333333     0.970000000000     0          
O        O      0.924000000000     0.962000000000     0.989300000000     0          
O        O      0.810133333333     0.953566666667     0.750000000000     0          
O        O      0.878600000000     0.998600000000     0.782100000000     0          
O        O      0.868700000000     0.934366666667     0.750000000000     0          
O        O      0.881566666667     0.876000000000     0.090400000000     0          
O        O      0.858200000000     0.929100000000     0.075000000000     0          
O        O      0.814333333333     0.852333333333     0.056100000000     0          
O        O      0.811466666667     0.956266666667     0.871600000000     0          
O        O      0.884300000000     0.670400000000     0.846100000000     0          
O        O      0.867433333333     0.933733333333     0.872500000000     0          
O        O      0.811166666667     0.855500000000     0.186100000000     0          
O        O      0.867333333333     0.933666666667     0.190300000000     0          
T        Si     0.860066666667     0.889366666667     0.063000000000     0          
T        Si     0.859666666667     0.971866666667     0.875000000000     0          
T        Si     0.859600000000     0.887833333333     0.187000000000     0          
T        Si     0.858866666667     0.971233333333     0.750000000000     0          
T        Si     0.918333333333     0.666666666667     0.000000000000     0          
O        O      0.886700000000     0.900366666667     0.470000000000     0          
O        O      0.962000000000     0.924000000000     0.489300000000     0          
O        O      0.856566666667     0.810133333333     0.250000000000     0          
O        O      0.880000000000     0.878600000000     0.282100000000     0          
O        O      0.934333333333     0.868700000000     0.250000000000     0          
O        O      0.672233333333     0.881566666667     0.590400000000     0          
O        O      0.929100000000     0.858200000000     0.575000000000     0          
O        O      0.962000000000     0.814333333333     0.556100000000     0          
O        O      0.855200000000     0.811466666667     0.371600000000     0          
O        O      0.880566666667     0.884300000000     0.346100000000     0          
O        O      0.933700000000     0.867433333333     0.372500000000     0          
O        O      0.955666666667     0.811166666667     0.686100000000     0          
O        O      0.933666666667     0.867333333333     0.690300000000     0          
T        Si     0.970700000000     0.860066666667     0.563000000000     0          
T        Si     0.887800000000     0.859666666667     0.375000000000     0          
T        Si     0.971766666667     0.859600000000     0.687000000000     0          
T        Si     0.887633333333     0.858866666667     0.250000000000     0          
T        Si     0.918333333333     0.918333333333     0.500000000000     0          
O        O      0.986333333333     0.886700000000     0.970000000000     0          
O        O      0.704666666667     0.962000000000     0.989300000000     0          
O        O      0.713100000000     0.856566666667     0.750000000000     0          
O        O      0.668066666667     0.880000000000     0.782100000000     0          
O        O      0.732300000000     0.934333333333     0.750000000000     0          
O        O      0.790666666667     0.672233333333     0.090400000000     0          
O        O      0.737566666667     0.929100000000     0.075000000000     0          
O        O      0.814333333333     0.962000000000     0.056100000000     0          
O        O      0.710400000000     0.855200000000     0.871600000000     0          
O        O      0.996266666667     0.880566666667     0.846100000000     0          
O        O      0.732933333333     0.933700000000     0.872500000000     0          
O        O      0.811166666667     0.955666666667     0.186100000000     0          
O        O      0.733000000000     0.933666666667     0.190300000000     0          
T        Si     0.777300000000     0.970700000000     0.063000000000     0          
T        Si     0.694800000000     0.887800000000     0.875000000000     0          
T        Si     0.778833333333     0.971766666667     0.187000000000     0          
T        Si     0.695433333333     0.887633333333     0.750000000000     0          
T        Si     0.666666666667     0.918333333333     0.000000000000     0          
O        O      0.766300000000     0.986333333333     0.470000000000     0          
O        O      0.742666666667     0.704666666667     0.489300000000     0          
O        O      0.856533333333     0.713100000000     0.250000000000     0          
O        O      0.788066666667     0.668066666667     0.282100000000     0          
O        O      0.797966666667     0.732300000000     0.250000000000     0          
O        O      0.785100000000     0.790666666667     0.590400000000     0          
O        O      0.808466666667     0.737566666667     0.575000000000     0          
O        O      0.852333333333     0.814333333333     0.556100000000     0          
O        O      0.855200000000     0.710400000000     0.371600000000     0          
O        O      0.782366666667     0.996266666667     0.346100000000     0          
O        O      0.799233333333     0.732933333333     0.372500000000     0          
O        O      0.855500000000     0.811166666667     0.686100000000     0          
O        O      0.799333333333     0.733000000000     0.690300000000     0          
T        Si     0.806600000000     0.777300000000     0.563000000000     0          
T        Si     0.807000000000     0.694800000000     0.375000000000     0          
T        Si     0.807066666667     0.778833333333     0.687000000000     0          
T        Si     0.807800000000     0.695433333333     0.250000000000     0          
T        Si     0.748333333333     0.666666666667     0.500000000000     0          
O        O      0.779966666667     0.766300000000     0.970000000000     0          
O        O      0.704666666667     0.742666666667     0.989300000000     0          
O        O      0.810100000000     0.856533333333     0.750000000000     0          
O        O      0.786666666667     0.788066666667     0.782100000000     0          
O        O      0.732333333333     0.797966666667     0.750000000000     0          
O        O      0.994433333333     0.785100000000     0.090400000000     0          
O        O      0.737566666667     0.808466666667     0.075000000000     0          
O        O      0.704666666667     0.852333333333     0.056100000000     0          
O        O      0.811466666667     0.855200000000     0.871600000000     0          
O        O      0.786100000000     0.782366666667     0.846100000000     0          
O        O      0.732966666667     0.799233333333     0.872500000000     0          
O        O      0.711000000000     0.855500000000     0.186100000000     0          
O        O      0.733000000000     0.799333333333     0.190300000000     0          
T        Si     0.695966666667     0.806600000000     0.063000000000     0          
T        Si     0.778866666667     0.807000000000     0.875000000000     0          
T        Si     0.694900000000     0.807066666667     0.187000000000     0          
T        Si     0.779033333333     0.807800000000     0.750000000000     0          
T        Si     0.748333333333     0.748333333333     0.000000000000     0          
O        O      0.680333333333     0.779966666667     0.470000000000     0          
O        O      0.962000000000     0.704666666667     0.489300000000     0          
O        O      0.953566666667     0.810100000000     0.250000000000     0          
O        O      0.998600000000     0.786666666667     0.282100000000     0          
O        O      0.934366666667     0.732333333333     0.250000000000     0          
O        O      0.876000000000     0.994433333333     0.590400000000     0          
O        O      0.929100000000     0.737566666667     0.575000000000     0          
O        O      0.852333333333     0.704666666667     0.556100000000     0          
O        O      0.956266666667     0.811466666667     0.371600000000     0          
O        O      0.670400000000     0.786100000000     0.346100000000     0          
O        O      0.933733333333     0.732966666667     0.372500000000     0          
O        O      0.855500000000     0.711000000000     0.686100000000     0          
O        O      0.933666666667     0.733000000000     0.690300000000     0          
T        Si     0.889366666667     0.695966666667     0.563000000000     0          
T        Si     0.971866666667     0.778866666667     0.375000000000     0          
T        Si     0.887833333333     0.694900000000     0.687000000000     0          
T        Si     0.971233333333     0.779033333333     0.250000000000     0          
T        Si     0.666666666667     0.748333333333     0.500000000000     0          
O        O      0.986333333333     0.766300000000     0.530000000000     0          
O        O      0.704666666667     0.742666666667     0.510700000000     0          
O        O      0.668066666667     0.788066666667     0.717900000000     0          
O        O      0.790666666667     0.785100000000     0.409600000000     0          
O        O      0.737566666667     0.808466666667     0.425000000000     0          
O        O      0.814333333333     0.852333333333     0.443900000000     0          
O        O      0.710400000000     0.855200000000     0.628400000000     0          
O        O      0.996266666667     0.782366666667     0.653900000000     0          
O        O      0.732933333333     0.799233333333     0.627500000000     0          
O        O      0.811166666667     0.855500000000     0.313900000000     0          
O        O      0.733000000000     0.799333333333     0.309700000000     0          
T        Si     0.777300000000     0.806600000000     0.437000000000     0          
T        Si     0.694800000000     0.807000000000     0.625000000000     0          
T        Si     0.778833333333     0.807066666667     0.313000000000     0          
T        Si     0.695433333333     0.807800000000     0.750000000000     0          
O        O      0.886700000000     0.986333333333     0.030000000000     0          
O        O      0.962000000000     0.704666666667     0.010700000000     0          
O        O      0.880000000000     0.668066666667     0.217900000000     0          
O        O      0.672233333333     0.790666666667     0.909600000000     0          
O        O      0.929100000000     0.737566666667     0.925000000000     0          
O        O      0.962000000000     0.814333333333     0.943900000000     0          
O        O      0.855200000000     0.710400000000     0.128400000000     0          
O        O      0.880566666667     0.996266666667     0.153900000000     0          
O        O      0.933700000000     0.732933333333     0.127500000000     0          
O        O      0.955666666667     0.811166666667     0.813900000000     0          
O        O      0.933666666667     0.733000000000     0.809700000000     0          
T        Si     0.970700000000     0.777300000000     0.937000000000     0          
T        Si     0.887800000000     0.694800000000     0.125000000000     0          
T        Si     0.971766666667     0.778833333333     0.813000000000     0          
T        Si     0.887633333333     0.695433333333     0.250000000000     0          
O        O      0.900366666667     0.886700000000     0.530000000000     0          
O        O      0.924000000000     0.962000000000     0.510700000000     0          
O        O      0.878600000000     0.880000000000     0.717900000000     0          
O        O      0.881566666667     0.672233333333     0.409600000000     0          
O        O      0.858200000000     0.929100000000     0.425000000000     0          
O        O      0.814333333333     0.962000000000     0.443900000000     0          
O        O      0.811466666667     0.855200000000     0.628400000000     0          
O        O      0.884300000000     0.880566666667     0.653900000000     0          
O        O      0.867433333333     0.933700000000     0.627500000000     0          
O        O      0.811166666667     0.955666666667     0.313900000000     0          
O        O      0.867333333333     0.933666666667     0.309700000000     0          
T        Si     0.860066666667     0.970700000000     0.437000000000     0          
T        Si     0.859666666667     0.887800000000     0.625000000000     0          
T        Si     0.859600000000     0.971766666667     0.313000000000     0          
T        Si     0.858866666667     0.887633333333     0.750000000000     0          
O        O      0.680333333333     0.900366666667     0.030000000000     0          
O        O      0.962000000000     0.924000000000     0.010700000000     0          
O        O      0.998600000000     0.878600000000     0.217900000000     0          
O        O      0.876000000000     0.881566666667     0.909600000000     0          
O        O      0.929100000000     0.858200000000     0.925000000000     0          
O        O      0.852333333333     0.814333333333     0.943900000000     0          
O        O      0.956266666667     0.811466666667     0.128400000000     0          
O        O      0.670400000000     0.884300000000     0.153900000000     0          
O        O      0.933733333333     0.867433333333     0.127500000000     0          
O        O      0.855500000000     0.811166666667     0.813900000000     0          
O        O      0.933666666667     0.867333333333     0.809700000000     0          
T        Si     0.889366666667     0.860066666667     0.937000000000     0          
T        Si     0.971866666667     0.859666666667     0.125000000000     0          
T        Si     0.887833333333     0.859600000000     0.813000000000     0          
T        Si     0.971233333333     0.858866666667     0.250000000000     0          
O        O      0.779966666667     0.680333333333     0.530000000000     0          
O        O      0.704666666667     0.962000000000     0.510700000000     0          
O        O      0.786666666667     0.998600000000     0.717900000000     0          
O        O      0.994433333333     0.876000000000     0.409600000000     0          
O        O      0.737566666667     0.929100000000     0.425000000000     0          
O        O      0.704666666667     0.852333333333     0.443900000000     0          
O        O      0.811466666667     0.956266666667     0.628400000000     0          
O        O      0.786100000000     0.670400000000     0.653900000000     0          
O        O      0.732966666667     0.933733333333     0.627500000000     0          
O        O      0.711000000000     0.855500000000     0.313900000000     0          
O        O      0.733000000000     0.933666666667     0.309700000000     0          
T        Si     0.695966666667     0.889366666667     0.437000000000     0          
T        Si     0.778866666667     0.971866666667     0.625000000000     0          
T        Si     0.694900000000     0.887833333333     0.313000000000     0          
T        Si     0.779033333333     0.971233333333     0.750000000000     0          
O        O      0.766300000000     0.779966666667     0.030000000000     0          
O        O      0.742666666667     0.704666666667     0.010700000000     0          
O        O      0.788066666667     0.786666666667     0.217900000000     0          
O        O      0.785100000000     0.994433333333     0.909600000000     0          
O        O      0.808466666667     0.737566666667     0.925000000000     0          
O        O      0.852333333333     0.704666666667     0.943900000000     0          
O        O      0.855200000000     0.811466666667     0.128400000000     0          
O        O      0.782366666667     0.786100000000     0.153900000000     0          
O        O      0.799233333333     0.732966666667     0.127500000000     0          
O        O      0.855500000000     0.711000000000     0.813900000000     0          
O        O      0.799333333333     0.733000000000     0.809700000000     0          
T        Si     0.806600000000     0.695966666667     0.937000000000     0          
T        Si     0.807000000000     0.778866666667     0.125000000000     0          
T        Si     0.807066666667     0.694900000000     0.813000000000     0          
T        Si     0.807800000000     0.779033333333     0.250000000000     0          
O        O      0.766300000000     0.986333333333     0.030000000000     0          
O        O      0.788066666667     0.668066666667     0.217900000000     0          
O        O      0.785100000000     0.790666666667     0.909600000000     0          
O        O      0.782366666667     0.996266666667     0.153900000000     0          
T        Si     0.806600000000     0.777300000000     0.937000000000     0          
T        Si     0.807000000000     0.694800000000     0.125000000000     0          
T        Si     0.807066666667     0.778833333333     0.813000000000     0          
T        Si     0.748333333333     0.666666666667     0.000000000000     0          
O        O      0.779966666667     0.766300000000     0.530000000000     0          
O        O      0.786666666667     0.788066666667     0.717900000000     0          
O        O      0.994433333333     0.785100000000     0.409600000000     0          
O        O      0.786100000000     0.782366666667     0.653900000000     0          
T        Si     0.695966666667     0.806600000000     0.437000000000     0          
T        Si     0.778866666667     0.807000000000     0.625000000000     0          
T        Si     0.694900000000     0.807066666667     0.313000000000     0          
T        Si     0.748333333333     0.748333333333     0.500000000000     0          
O        O      0.680333333333     0.779966666667     0.030000000000     0          
O        O      0.998600000000     0.786666666667     0.217900000000     0          
O        O      0.876000000000     0.994433333333     0.909600000000     0          
O        O      0.670400000000     0.786100000000     0.153900000000     0          
T        Si     0.889366666667     0.695966666667     0.937000000000     0          
T        Si     0.971866666667     0.778866666667     0.125000000000     0          
T        Si     0.887833333333     0.694900000000     0.813000000000     0          
T        Si     0.666666666667     0.748333333333     0.000000000000     0          
O        O      0.900366666667     0.680333333333     0.530000000000     0          
O        O      0.878600000000     0.998600000000     0.717900000000     0          
O        O      0.881566666667     0.876000000000     0.409600000000     0          
O        O      0.884300000000     0.670400000000     0.653900000000     0          
T        Si     0.860066666667     0.889366666667     0.437000000000     0          
T        Si     0.859666666667     0.971866666667     0.625000000000     0          
T        Si     0.859600000000     0.887833333333     0.313000000000     0          
T        Si     0.918333333333     0.666666666667     0.500000000000     0          
O        O      0.886700000000     0.900366666667     0.030000000000     0          
O        O      0.880000000000     0.878600000000     0.217900000000     0          
O        O      0.672233333333     0.881566666667     0.909600000000     0          
O        O      0.880566666667     0.884300000000     0.153900000000     0          
T        Si     0.970700000000     0.860066666667     0.937000000000     0          
T        Si     0.887800000000     0.859666666667     0.125000000000     0          
T        Si     0.971766666667     0.859600000000     0.813000000000     0          
T        Si     0.918333333333     0.918333333333     0.000000000000     0          
O        O      0.986333333333     0.886700000000     0.530000000000     0          
O        O      0.668066666667     0.880000000000     0.717900000000     0          
O        O      0.790666666667     0.672233333333     0.409600000000     0          
O        O      0.996266666667     0.880566666667     0.653900000000     0          
T        Si     0.777300000000     0.970700000000     0.437000000000     0          
T        Si     0.694800000000     0.887800000000     0.625000000000     0          
T        Si     0.778833333333     0.971766666667     0.313000000000     0          
T        Si     0.666666666667     0.918333333333     0.500000000000     0          
O        O      0.680333333333     0.900366666667     0.470000000000     0          
O        O      0.998600000000     0.878600000000     0.282100000000     0          
O        O      0.876000000000     0.881566666667     0.590400000000     0          
O        O      0.670400000000     0.884300000000     0.346100000000     0          
T        Si     0.889366666667     0.860066666667     0.563000000000     0          
T        Si     0.971866666667     0.859666666667     0.375000000000     0          
T        Si     0.887833333333     0.859600000000     0.687000000000     0          
O        O      0.779966666667     0.680333333333     0.970000000000     0          
O        O      0.786666666667     0.998600000000     0.782100000000     0          
O        O      0.994433333333     0.876000000000     0.090400000000     0          
O        O      0.786100000000     0.670400000000     0.846100000000     0          
T        Si     0.695966666667     0.889366666667     0.063000000000     0          
T        Si     0.778866666667     0.971866666667     0.875000000000     0          
T        Si     0.694900000000     0.887833333333     0.187000000000     0          
O        O      0.766300000000     0.779966666667     0.470000000000     0          
O        O      0.788066666667     0.786666666667     0.282100000000     0          
O        O      0.785100000000     0.994433333333     0.590400000000     0          
O        O      0.782366666667     0.786100000000     0.346100000000     0          
T        Si     0.806600000000     0.695966666667     0.563000000000     0          
T        Si     0.807000000000     0.778866666667     0.375000000000     0          
T        Si     0.807066666667     0.694900000000     0.687000000000     0          
O        O      0.986333333333     0.766300000000     0.970000000000     0          
O        O      0.668066666667     0.788066666667     0.782100000000     0          
O        O      0.790666666667     0.785100000000     0.090400000000     0          
O        O      0.996266666667     0.782366666667     0.846100000000     0          
T        Si     0.777300000000     0.806600000000     0.063000000000     0          
T        Si     0.694800000000     0.807000000000     0.875000000000     0          
T        Si     0.778833333333     0.807066666667     0.187000000000     0          
O        O      0.886700000000     0.986333333333     0.470000000000     0          
O        O      0.880000000000     0.668066666667     0.282100000000     0          
O        O      0.672233333333     0.790666666667     0.590400000000     0          
O        O      0.880566666667     0.996266666667     0.346100000000     0          
T        Si     0.970700000000     0.777300000000     0.563000000000     0          
T        Si     0.887800000000     0.694800000000     0.375000000000     0          
T        Si     0.971766666667     0.778833333333     0.687000000000     0          
O        O      0.900366666667     0.886700000000     0.970000000000     0          
O        O      0.878600000000     0.880000000000     0.782100000000     0          
O        O      0.881566666667     0.672233333333     0.090400000000     0          
O        O      0.884300000000     0.880566666667     0.846100000000     0          
T        Si     0.860066666667     0.970700000000     0.063000000000     0          
T        Si     0.859666666667     0.887800000000     0.875000000000     0          
T        Si     0.859600000000     0.971766666667     0.187000000000     0          


