data_zeolite

_audit_creation_method RASPA-1.0
_audit_creation_date 2021-6-7
_audit_author_name ''

_cell_length_a    13.224
_cell_length_b    13.286
_cell_length_c    12.454
_cell_angle_alpha 90
_cell_angle_beta  114.842
_cell_angle_gamma 90
_cell_volume      35741.3

_symmetry_cell_setting          monoclinic
_symmetry_space_group_name_Hall 'P 1'
_symmetry_space_group_name_H-M  'P 1'
_symmetry_Int_Tables_number     1

_symmetry_equiv_pos_as_xyz 'x,y,z'

loop_
_atom_site_label
_atom_site_type_symbol
_atom_site_fract_x
_atom_site_fract_y
_atom_site_fract_z
_atom_site_charge
T        Si     0.092200000000     0.059150000000     0.038800000000     0          
T        Si     0.098366666667     0.057350000000     0.123600000000     0          
T        Si     0.017333333333     0.058150000000     0.106866666667     0          
T        Si     0.310933333333     0.111400000000     0.024766666667     0          
T        Si     0.000000000000     0.121600000000     0.166666666667     0          
T        Si     0.241133333333     0.059150000000     0.294533333333     0          
T        Si     0.234966666667     0.057350000000     0.209733333333     0          
T        Si     0.316000000000     0.058150000000     0.226466666667     0          
T        Si     0.022400000000     0.111400000000     0.308566666667     0          
T        Si     0.241133333333     0.440850000000     0.294533333333     0          
T        Si     0.234966666667     0.442650000000     0.209733333333     0          
T        Si     0.316000000000     0.441850000000     0.226466666667     0          
T        Si     0.022400000000     0.388600000000     0.308566666667     0          
T        Si     0.000000000000     0.378400000000     0.166666666667     0          
T        Si     0.092200000000     0.440850000000     0.038800000000     0          
T        Si     0.098366666667     0.442650000000     0.123600000000     0          
T        Si     0.017333333333     0.441850000000     0.106866666667     0          
T        Si     0.310933333333     0.388600000000     0.024766666667     0          
T        Si     0.258866666667     0.309150000000     0.038800000000     0          
T        Si     0.265033333333     0.307350000000     0.123600000000     0          
T        Si     0.184000000000     0.308150000000     0.106866666667     0          
T        Si     0.144266666667     0.361400000000     0.024766666667     0          
T        Si     0.166666666667     0.371600000000     0.166666666667     0          
T        Si     0.074466666667     0.309150000000     0.294533333333     0          
T        Si     0.068300000000     0.307350000000     0.209733333333     0          
T        Si     0.149333333333     0.308150000000     0.226466666667     0          
T        Si     0.189066666667     0.361400000000     0.308566666667     0          
T        Si     0.074466666667     0.190850000000     0.294533333333     0          
T        Si     0.068300000000     0.192650000000     0.209733333333     0          
T        Si     0.149333333333     0.191850000000     0.226466666667     0          
T        Si     0.189066666667     0.138600000000     0.308566666667     0          
T        Si     0.166666666667     0.128400000000     0.166666666667     0          
T        Si     0.258866666667     0.190850000000     0.038800000000     0          
T        Si     0.265033333333     0.192650000000     0.123600000000     0          
T        Si     0.184000000000     0.191850000000     0.106866666667     0          
T        Si     0.144266666667     0.138600000000     0.024766666667     0          
T        Si     0.092200000000     0.059150000000     0.372133333333     0          
T        Si     0.098366666667     0.057350000000     0.456933333333     0          
T        Si     0.017333333333     0.058150000000     0.440200000000     0          
T        Si     0.310933333333     0.111400000000     0.358100000000     0          
T        Si     0.000000000000     0.121600000000     0.500000000000     0          
T        Si     0.241133333333     0.059150000000     0.627866666667     0          
T        Si     0.234966666667     0.057350000000     0.543066666667     0          
T        Si     0.316000000000     0.058150000000     0.559800000000     0          
T        Si     0.022400000000     0.111400000000     0.641900000000     0          
T        Si     0.241133333333     0.440850000000     0.627866666667     0          
T        Si     0.234966666667     0.442650000000     0.543066666667     0          
T        Si     0.316000000000     0.441850000000     0.559800000000     0          
T        Si     0.022400000000     0.388600000000     0.641900000000     0          
T        Si     0.000000000000     0.378400000000     0.500000000000     0          
T        Si     0.092200000000     0.440850000000     0.372133333333     0          
T        Si     0.098366666667     0.442650000000     0.456933333333     0          
T        Si     0.017333333333     0.441850000000     0.440200000000     0          
T        Si     0.310933333333     0.388600000000     0.358100000000     0          
T        Si     0.258866666667     0.309150000000     0.372133333333     0          
T        Si     0.265033333333     0.307350000000     0.456933333333     0          
T        Si     0.184000000000     0.308150000000     0.440200000000     0          
T        Si     0.144266666667     0.361400000000     0.358100000000     0          
T        Si     0.166666666667     0.371600000000     0.500000000000     0          
T        Si     0.074466666667     0.309150000000     0.627866666667     0          
T        Si     0.068300000000     0.307350000000     0.543066666667     0          
T        Si     0.149333333333     0.308150000000     0.559800000000     0          
T        Si     0.189066666667     0.361400000000     0.641900000000     0          
T        Si     0.074466666667     0.190850000000     0.627866666667     0          
T        Si     0.068300000000     0.192650000000     0.543066666667     0          
T        Si     0.149333333333     0.191850000000     0.559800000000     0          
T        Si     0.189066666667     0.138600000000     0.641900000000     0          
T        Si     0.166666666667     0.128400000000     0.500000000000     0          
T        Si     0.258866666667     0.190850000000     0.372133333333     0          
T        Si     0.265033333333     0.192650000000     0.456933333333     0          
T        Si     0.184000000000     0.191850000000     0.440200000000     0          
T        Si     0.144266666667     0.138600000000     0.358100000000     0          
T        Si     0.092200000000     0.059150000000     0.705466666667     0          
T        Si     0.098366666667     0.057350000000     0.790266666667     0          
T        Si     0.017333333333     0.058150000000     0.773533333333     0          
T        Si     0.310933333333     0.111400000000     0.691433333333     0          
T        Si     0.000000000000     0.121600000000     0.833333333333     0          
T        Si     0.241133333333     0.059150000000     0.961200000000     0          
T        Si     0.234966666667     0.057350000000     0.876400000000     0          
T        Si     0.316000000000     0.058150000000     0.893133333333     0          
T        Si     0.022400000000     0.111400000000     0.975233333333     0          
T        Si     0.241133333333     0.440850000000     0.961200000000     0          
T        Si     0.234966666667     0.442650000000     0.876400000000     0          
T        Si     0.316000000000     0.441850000000     0.893133333333     0          
T        Si     0.022400000000     0.388600000000     0.975233333333     0          
T        Si     0.000000000000     0.378400000000     0.833333333333     0          
T        Si     0.092200000000     0.440850000000     0.705466666667     0          
T        Si     0.098366666667     0.442650000000     0.790266666667     0          
T        Si     0.017333333333     0.441850000000     0.773533333333     0          
T        Si     0.310933333333     0.388600000000     0.691433333333     0          
T        Si     0.258866666667     0.309150000000     0.705466666667     0          
T        Si     0.265033333333     0.307350000000     0.790266666667     0          
T        Si     0.184000000000     0.308150000000     0.773533333333     0          
T        Si     0.144266666667     0.361400000000     0.691433333333     0          
T        Si     0.166666666667     0.371600000000     0.833333333333     0          
T        Si     0.074466666667     0.309150000000     0.961200000000     0          
T        Si     0.068300000000     0.307350000000     0.876400000000     0          
T        Si     0.149333333333     0.308150000000     0.893133333333     0          
T        Si     0.189066666667     0.361400000000     0.975233333333     0          
T        Si     0.074466666667     0.190850000000     0.961200000000     0          
T        Si     0.068300000000     0.192650000000     0.876400000000     0          
T        Si     0.149333333333     0.191850000000     0.893133333333     0          
T        Si     0.189066666667     0.138600000000     0.975233333333     0          
T        Si     0.166666666667     0.128400000000     0.833333333333     0          
T        Si     0.258866666667     0.190850000000     0.705466666667     0          
T        Si     0.265033333333     0.192650000000     0.790266666667     0          
T        Si     0.184000000000     0.191850000000     0.773533333333     0          
T        Si     0.144266666667     0.138600000000     0.691433333333     0          
T        Si     0.092200000000     0.559150000000     0.038800000000     0          
T        Si     0.098366666667     0.557350000000     0.123600000000     0          
T        Si     0.017333333333     0.558150000000     0.106866666667     0          
T        Si     0.310933333333     0.611400000000     0.024766666667     0          
T        Si     0.000000000000     0.621600000000     0.166666666667     0          
T        Si     0.241133333333     0.559150000000     0.294533333333     0          
T        Si     0.234966666667     0.557350000000     0.209733333333     0          
T        Si     0.316000000000     0.558150000000     0.226466666667     0          
T        Si     0.022400000000     0.611400000000     0.308566666667     0          
T        Si     0.241133333333     0.940850000000     0.294533333333     0          
T        Si     0.234966666667     0.942650000000     0.209733333333     0          
T        Si     0.316000000000     0.941850000000     0.226466666667     0          
T        Si     0.022400000000     0.888600000000     0.308566666667     0          
T        Si     0.000000000000     0.878400000000     0.166666666667     0          
T        Si     0.092200000000     0.940850000000     0.038800000000     0          
T        Si     0.098366666667     0.942650000000     0.123600000000     0          
T        Si     0.017333333333     0.941850000000     0.106866666667     0          
T        Si     0.310933333333     0.888600000000     0.024766666667     0          
T        Si     0.258866666667     0.809150000000     0.038800000000     0          
T        Si     0.265033333333     0.807350000000     0.123600000000     0          
T        Si     0.184000000000     0.808150000000     0.106866666667     0          
T        Si     0.144266666667     0.861400000000     0.024766666667     0          
T        Si     0.166666666667     0.871600000000     0.166666666667     0          
T        Si     0.074466666667     0.809150000000     0.294533333333     0          
T        Si     0.068300000000     0.807350000000     0.209733333333     0          
T        Si     0.149333333333     0.808150000000     0.226466666667     0          
T        Si     0.189066666667     0.861400000000     0.308566666667     0          
T        Si     0.074466666667     0.690850000000     0.294533333333     0          
T        Si     0.068300000000     0.692650000000     0.209733333333     0          
T        Si     0.149333333333     0.691850000000     0.226466666667     0          
T        Si     0.189066666667     0.638600000000     0.308566666667     0          
T        Si     0.166666666667     0.628400000000     0.166666666667     0          
T        Si     0.258866666667     0.690850000000     0.038800000000     0          
T        Si     0.265033333333     0.692650000000     0.123600000000     0          
T        Si     0.184000000000     0.691850000000     0.106866666667     0          
T        Si     0.144266666667     0.638600000000     0.024766666667     0          
T        Si     0.092200000000     0.559150000000     0.372133333333     0          
T        Si     0.098366666667     0.557350000000     0.456933333333     0          
T        Si     0.017333333333     0.558150000000     0.440200000000     0          
T        Si     0.310933333333     0.611400000000     0.358100000000     0          
T        Si     0.000000000000     0.621600000000     0.500000000000     0          
T        Si     0.241133333333     0.559150000000     0.627866666667     0          
T        Si     0.234966666667     0.557350000000     0.543066666667     0          
T        Si     0.316000000000     0.558150000000     0.559800000000     0          
T        Si     0.022400000000     0.611400000000     0.641900000000     0          
T        Si     0.241133333333     0.940850000000     0.627866666667     0          
T        Si     0.234966666667     0.942650000000     0.543066666667     0          
T        Si     0.316000000000     0.941850000000     0.559800000000     0          
T        Si     0.022400000000     0.888600000000     0.641900000000     0          
T        Si     0.000000000000     0.878400000000     0.500000000000     0          
T        Si     0.092200000000     0.940850000000     0.372133333333     0          
T        Si     0.098366666667     0.942650000000     0.456933333333     0          
T        Si     0.017333333333     0.941850000000     0.440200000000     0          
T        Si     0.310933333333     0.888600000000     0.358100000000     0          
T        Si     0.258866666667     0.809150000000     0.372133333333     0          
T        Si     0.265033333333     0.807350000000     0.456933333333     0          
T        Si     0.184000000000     0.808150000000     0.440200000000     0          
T        Si     0.144266666667     0.861400000000     0.358100000000     0          
T        Si     0.166666666667     0.871600000000     0.500000000000     0          
T        Si     0.074466666667     0.809150000000     0.627866666667     0          
T        Si     0.068300000000     0.807350000000     0.543066666667     0          
T        Si     0.149333333333     0.808150000000     0.559800000000     0          
T        Si     0.189066666667     0.861400000000     0.641900000000     0          
T        Si     0.074466666667     0.690850000000     0.627866666667     0          
T        Si     0.068300000000     0.692650000000     0.543066666667     0          
T        Si     0.149333333333     0.691850000000     0.559800000000     0          
T        Si     0.189066666667     0.638600000000     0.641900000000     0          
T        Si     0.166666666667     0.628400000000     0.500000000000     0          
T        Si     0.258866666667     0.690850000000     0.372133333333     0          
T        Si     0.265033333333     0.692650000000     0.456933333333     0          
T        Si     0.184000000000     0.691850000000     0.440200000000     0          
T        Si     0.144266666667     0.638600000000     0.358100000000     0          
T        Si     0.092200000000     0.559150000000     0.705466666667     0          
T        Si     0.098366666667     0.557350000000     0.790266666667     0          
T        Si     0.017333333333     0.558150000000     0.773533333333     0          
T        Si     0.310933333333     0.611400000000     0.691433333333     0          
T        Si     0.000000000000     0.621600000000     0.833333333333     0          
T        Si     0.241133333333     0.559150000000     0.961200000000     0          
T        Si     0.234966666667     0.557350000000     0.876400000000     0          
T        Si     0.316000000000     0.558150000000     0.893133333333     0          
T        Si     0.022400000000     0.611400000000     0.975233333333     0          
T        Si     0.241133333333     0.940850000000     0.961200000000     0          
T        Si     0.234966666667     0.942650000000     0.876400000000     0          
T        Si     0.316000000000     0.941850000000     0.893133333333     0          
T        Si     0.022400000000     0.888600000000     0.975233333333     0          
T        Si     0.000000000000     0.878400000000     0.833333333333     0          
T        Si     0.092200000000     0.940850000000     0.705466666667     0          
T        Si     0.098366666667     0.942650000000     0.790266666667     0          
T        Si     0.017333333333     0.941850000000     0.773533333333     0          
T        Si     0.310933333333     0.888600000000     0.691433333333     0          
T        Si     0.258866666667     0.809150000000     0.705466666667     0          
T        Si     0.265033333333     0.807350000000     0.790266666667     0          
T        Si     0.184000000000     0.808150000000     0.773533333333     0          
T        Si     0.144266666667     0.861400000000     0.691433333333     0          
T        Si     0.166666666667     0.871600000000     0.833333333333     0          
T        Si     0.074466666667     0.809150000000     0.961200000000     0          
T        Si     0.068300000000     0.807350000000     0.876400000000     0          
T        Si     0.149333333333     0.808150000000     0.893133333333     0          
T        Si     0.189066666667     0.861400000000     0.975233333333     0          
T        Si     0.074466666667     0.690850000000     0.961200000000     0          
T        Si     0.068300000000     0.692650000000     0.876400000000     0          
T        Si     0.149333333333     0.691850000000     0.893133333333     0          
T        Si     0.189066666667     0.638600000000     0.975233333333     0          
T        Si     0.166666666667     0.628400000000     0.833333333333     0          
T        Si     0.258866666667     0.690850000000     0.705466666667     0          
T        Si     0.265033333333     0.692650000000     0.790266666667     0          
T        Si     0.184000000000     0.691850000000     0.773533333333     0          
T        Si     0.144266666667     0.638600000000     0.691433333333     0          
T        Si     0.425533333333     0.059150000000     0.038800000000     0          
T        Si     0.431700000000     0.057350000000     0.123600000000     0          
T        Si     0.350666666667     0.058150000000     0.106866666667     0          
T        Si     0.644266666667     0.111400000000     0.024766666667     0          
T        Si     0.333333333333     0.121600000000     0.166666666667     0          
T        Si     0.574466666667     0.059150000000     0.294533333333     0          
T        Si     0.568300000000     0.057350000000     0.209733333333     0          
T        Si     0.649333333333     0.058150000000     0.226466666667     0          
T        Si     0.355733333333     0.111400000000     0.308566666667     0          
T        Si     0.574466666667     0.440850000000     0.294533333333     0          
T        Si     0.568300000000     0.442650000000     0.209733333333     0          
T        Si     0.649333333333     0.441850000000     0.226466666667     0          
T        Si     0.355733333333     0.388600000000     0.308566666667     0          
T        Si     0.333333333333     0.378400000000     0.166666666667     0          
T        Si     0.425533333333     0.440850000000     0.038800000000     0          
T        Si     0.431700000000     0.442650000000     0.123600000000     0          
T        Si     0.350666666667     0.441850000000     0.106866666667     0          
T        Si     0.644266666667     0.388600000000     0.024766666667     0          
T        Si     0.592200000000     0.309150000000     0.038800000000     0          
T        Si     0.598366666667     0.307350000000     0.123600000000     0          
T        Si     0.517333333333     0.308150000000     0.106866666667     0          
T        Si     0.477600000000     0.361400000000     0.024766666667     0          
T        Si     0.500000000000     0.371600000000     0.166666666667     0          
T        Si     0.407800000000     0.309150000000     0.294533333333     0          
T        Si     0.401633333333     0.307350000000     0.209733333333     0          
T        Si     0.482666666667     0.308150000000     0.226466666667     0          
T        Si     0.522400000000     0.361400000000     0.308566666667     0          
T        Si     0.407800000000     0.190850000000     0.294533333333     0          
T        Si     0.401633333333     0.192650000000     0.209733333333     0          
T        Si     0.482666666667     0.191850000000     0.226466666667     0          
T        Si     0.522400000000     0.138600000000     0.308566666667     0          
T        Si     0.500000000000     0.128400000000     0.166666666667     0          
T        Si     0.592200000000     0.190850000000     0.038800000000     0          
T        Si     0.598366666667     0.192650000000     0.123600000000     0          
T        Si     0.517333333333     0.191850000000     0.106866666667     0          
T        Si     0.477600000000     0.138600000000     0.024766666667     0          
T        Si     0.425533333333     0.059150000000     0.372133333333     0          
T        Si     0.431700000000     0.057350000000     0.456933333333     0          
T        Si     0.350666666667     0.058150000000     0.440200000000     0          
T        Si     0.644266666667     0.111400000000     0.358100000000     0          
T        Si     0.333333333333     0.121600000000     0.500000000000     0          
T        Si     0.574466666667     0.059150000000     0.627866666667     0          
T        Si     0.568300000000     0.057350000000     0.543066666667     0          
T        Si     0.649333333333     0.058150000000     0.559800000000     0          
T        Si     0.355733333333     0.111400000000     0.641900000000     0          
T        Si     0.574466666667     0.440850000000     0.627866666667     0          
T        Si     0.568300000000     0.442650000000     0.543066666667     0          
T        Si     0.649333333333     0.441850000000     0.559800000000     0          
T        Si     0.355733333333     0.388600000000     0.641900000000     0          
T        Si     0.333333333333     0.378400000000     0.500000000000     0          
T        Si     0.425533333333     0.440850000000     0.372133333333     0          
T        Si     0.431700000000     0.442650000000     0.456933333333     0          
T        Si     0.350666666667     0.441850000000     0.440200000000     0          
T        Si     0.644266666667     0.388600000000     0.358100000000     0          
T        Si     0.592200000000     0.309150000000     0.372133333333     0          
T        Si     0.598366666667     0.307350000000     0.456933333333     0          
T        Si     0.517333333333     0.308150000000     0.440200000000     0          
T        Si     0.477600000000     0.361400000000     0.358100000000     0          
T        Si     0.500000000000     0.371600000000     0.500000000000     0          
T        Si     0.407800000000     0.309150000000     0.627866666667     0          
T        Si     0.401633333333     0.307350000000     0.543066666667     0          
T        Si     0.482666666667     0.308150000000     0.559800000000     0          
T        Si     0.522400000000     0.361400000000     0.641900000000     0          
T        Si     0.407800000000     0.190850000000     0.627866666667     0          
T        Si     0.401633333333     0.192650000000     0.543066666667     0          
T        Si     0.482666666667     0.191850000000     0.559800000000     0          
T        Si     0.522400000000     0.138600000000     0.641900000000     0          
T        Si     0.500000000000     0.128400000000     0.500000000000     0          
T        Si     0.592200000000     0.190850000000     0.372133333333     0          
T        Si     0.598366666667     0.192650000000     0.456933333333     0          
T        Si     0.517333333333     0.191850000000     0.440200000000     0          
T        Si     0.477600000000     0.138600000000     0.358100000000     0          
T        Si     0.425533333333     0.059150000000     0.705466666667     0          
T        Si     0.431700000000     0.057350000000     0.790266666667     0          
T        Si     0.350666666667     0.058150000000     0.773533333333     0          
T        Si     0.644266666667     0.111400000000     0.691433333333     0          
T        Si     0.333333333333     0.121600000000     0.833333333333     0          
T        Si     0.574466666667     0.059150000000     0.961200000000     0          
T        Si     0.568300000000     0.057350000000     0.876400000000     0          
T        Si     0.649333333333     0.058150000000     0.893133333333     0          
T        Si     0.355733333333     0.111400000000     0.975233333333     0          
T        Si     0.574466666667     0.440850000000     0.961200000000     0          
T        Si     0.568300000000     0.442650000000     0.876400000000     0          
T        Si     0.649333333333     0.441850000000     0.893133333333     0          
T        Si     0.355733333333     0.388600000000     0.975233333333     0          
T        Si     0.333333333333     0.378400000000     0.833333333333     0          
T        Si     0.425533333333     0.440850000000     0.705466666667     0          
T        Si     0.431700000000     0.442650000000     0.790266666667     0          
T        Si     0.350666666667     0.441850000000     0.773533333333     0          
T        Si     0.644266666667     0.388600000000     0.691433333333     0          
T        Si     0.592200000000     0.309150000000     0.705466666667     0          
T        Si     0.598366666667     0.307350000000     0.790266666667     0          
T        Si     0.517333333333     0.308150000000     0.773533333333     0          
T        Si     0.477600000000     0.361400000000     0.691433333333     0          
T        Si     0.500000000000     0.371600000000     0.833333333333     0          
T        Si     0.407800000000     0.309150000000     0.961200000000     0          
T        Si     0.401633333333     0.307350000000     0.876400000000     0          
T        Si     0.482666666667     0.308150000000     0.893133333333     0          
T        Si     0.522400000000     0.361400000000     0.975233333333     0          
T        Si     0.407800000000     0.190850000000     0.961200000000     0          
T        Si     0.401633333333     0.192650000000     0.876400000000     0          
T        Si     0.482666666667     0.191850000000     0.893133333333     0          
T        Si     0.522400000000     0.138600000000     0.975233333333     0          
T        Si     0.500000000000     0.128400000000     0.833333333333     0          
T        Si     0.592200000000     0.190850000000     0.705466666667     0          
T        Si     0.598366666667     0.192650000000     0.790266666667     0          
T        Si     0.517333333333     0.191850000000     0.773533333333     0          
T        Si     0.477600000000     0.138600000000     0.691433333333     0          
T        Si     0.425533333333     0.559150000000     0.038800000000     0          
T        Si     0.431700000000     0.557350000000     0.123600000000     0          
T        Si     0.350666666667     0.558150000000     0.106866666667     0          
T        Si     0.644266666667     0.611400000000     0.024766666667     0          
T        Si     0.333333333333     0.621600000000     0.166666666667     0          
T        Si     0.574466666667     0.559150000000     0.294533333333     0          
T        Si     0.568300000000     0.557350000000     0.209733333333     0          
T        Si     0.649333333333     0.558150000000     0.226466666667     0          
T        Si     0.355733333333     0.611400000000     0.308566666667     0          
T        Si     0.574466666667     0.940850000000     0.294533333333     0          
T        Si     0.568300000000     0.942650000000     0.209733333333     0          
T        Si     0.649333333333     0.941850000000     0.226466666667     0          
T        Si     0.355733333333     0.888600000000     0.308566666667     0          
T        Si     0.333333333333     0.878400000000     0.166666666667     0          
T        Si     0.425533333333     0.940850000000     0.038800000000     0          
T        Si     0.431700000000     0.942650000000     0.123600000000     0          
T        Si     0.350666666667     0.941850000000     0.106866666667     0          
T        Si     0.644266666667     0.888600000000     0.024766666667     0          
T        Si     0.592200000000     0.809150000000     0.038800000000     0          
T        Si     0.598366666667     0.807350000000     0.123600000000     0          
T        Si     0.517333333333     0.808150000000     0.106866666667     0          
T        Si     0.477600000000     0.861400000000     0.024766666667     0          
T        Si     0.500000000000     0.871600000000     0.166666666667     0          
T        Si     0.407800000000     0.809150000000     0.294533333333     0          
T        Si     0.401633333333     0.807350000000     0.209733333333     0          
T        Si     0.482666666667     0.808150000000     0.226466666667     0          
T        Si     0.522400000000     0.861400000000     0.308566666667     0          
T        Si     0.407800000000     0.690850000000     0.294533333333     0          
T        Si     0.401633333333     0.692650000000     0.209733333333     0          
T        Si     0.482666666667     0.691850000000     0.226466666667     0          
T        Si     0.522400000000     0.638600000000     0.308566666667     0          
T        Si     0.500000000000     0.628400000000     0.166666666667     0          
T        Si     0.592200000000     0.690850000000     0.038800000000     0          
T        Si     0.598366666667     0.692650000000     0.123600000000     0          
T        Si     0.517333333333     0.691850000000     0.106866666667     0          
T        Si     0.477600000000     0.638600000000     0.024766666667     0          
T        Si     0.425533333333     0.559150000000     0.372133333333     0          
T        Si     0.431700000000     0.557350000000     0.456933333333     0          
T        Si     0.350666666667     0.558150000000     0.440200000000     0          
T        Si     0.644266666667     0.611400000000     0.358100000000     0          
T        Si     0.333333333333     0.621600000000     0.500000000000     0          
T        Si     0.574466666667     0.559150000000     0.627866666667     0          
T        Si     0.568300000000     0.557350000000     0.543066666667     0          
T        Si     0.649333333333     0.558150000000     0.559800000000     0          
T        Si     0.355733333333     0.611400000000     0.641900000000     0          
T        Si     0.574466666667     0.940850000000     0.627866666667     0          
T        Si     0.568300000000     0.942650000000     0.543066666667     0          
T        Si     0.649333333333     0.941850000000     0.559800000000     0          
T        Si     0.355733333333     0.888600000000     0.641900000000     0          
T        Si     0.333333333333     0.878400000000     0.500000000000     0          
T        Si     0.425533333333     0.940850000000     0.372133333333     0          
T        Si     0.431700000000     0.942650000000     0.456933333333     0          
T        Si     0.350666666667     0.941850000000     0.440200000000     0          
T        Si     0.644266666667     0.888600000000     0.358100000000     0          
T        Si     0.592200000000     0.809150000000     0.372133333333     0          
T        Si     0.598366666667     0.807350000000     0.456933333333     0          
T        Si     0.517333333333     0.808150000000     0.440200000000     0          
T        Si     0.477600000000     0.861400000000     0.358100000000     0          
T        Si     0.500000000000     0.871600000000     0.500000000000     0          
T        Si     0.407800000000     0.809150000000     0.627866666667     0          
T        Si     0.401633333333     0.807350000000     0.543066666667     0          
T        Si     0.482666666667     0.808150000000     0.559800000000     0          
T        Si     0.522400000000     0.861400000000     0.641900000000     0          
T        Si     0.407800000000     0.690850000000     0.627866666667     0          
T        Si     0.401633333333     0.692650000000     0.543066666667     0          
T        Si     0.482666666667     0.691850000000     0.559800000000     0          
T        Si     0.522400000000     0.638600000000     0.641900000000     0          
T        Si     0.500000000000     0.628400000000     0.500000000000     0          
T        Si     0.592200000000     0.690850000000     0.372133333333     0          
T        Si     0.598366666667     0.692650000000     0.456933333333     0          
T        Si     0.517333333333     0.691850000000     0.440200000000     0          
T        Si     0.477600000000     0.638600000000     0.358100000000     0          
T        Si     0.425533333333     0.559150000000     0.705466666667     0          
T        Si     0.431700000000     0.557350000000     0.790266666667     0          
T        Si     0.350666666667     0.558150000000     0.773533333333     0          
T        Si     0.644266666667     0.611400000000     0.691433333333     0          
T        Si     0.333333333333     0.621600000000     0.833333333333     0          
T        Si     0.574466666667     0.559150000000     0.961200000000     0          
T        Si     0.568300000000     0.557350000000     0.876400000000     0          
T        Si     0.649333333333     0.558150000000     0.893133333333     0          
T        Si     0.355733333333     0.611400000000     0.975233333333     0          
T        Si     0.574466666667     0.940850000000     0.961200000000     0          
T        Si     0.568300000000     0.942650000000     0.876400000000     0          
T        Si     0.649333333333     0.941850000000     0.893133333333     0          
T        Si     0.355733333333     0.888600000000     0.975233333333     0          
T        Si     0.333333333333     0.878400000000     0.833333333333     0          
T        Si     0.425533333333     0.940850000000     0.705466666667     0          
T        Si     0.431700000000     0.942650000000     0.790266666667     0          
T        Si     0.350666666667     0.941850000000     0.773533333333     0          
T        Si     0.644266666667     0.888600000000     0.691433333333     0          
T        Si     0.592200000000     0.809150000000     0.705466666667     0          
T        Si     0.598366666667     0.807350000000     0.790266666667     0          
T        Si     0.517333333333     0.808150000000     0.773533333333     0          
T        Si     0.477600000000     0.861400000000     0.691433333333     0          
T        Si     0.500000000000     0.871600000000     0.833333333333     0          
T        Si     0.407800000000     0.809150000000     0.961200000000     0          
T        Si     0.401633333333     0.807350000000     0.876400000000     0          
T        Si     0.482666666667     0.808150000000     0.893133333333     0          
T        Si     0.522400000000     0.861400000000     0.975233333333     0          
T        Si     0.407800000000     0.690850000000     0.961200000000     0          
T        Si     0.401633333333     0.692650000000     0.876400000000     0          
T        Si     0.482666666667     0.691850000000     0.893133333333     0          
T        Si     0.522400000000     0.638600000000     0.975233333333     0          
T        Si     0.500000000000     0.628400000000     0.833333333333     0          
T        Si     0.592200000000     0.690850000000     0.705466666667     0          
T        Si     0.598366666667     0.692650000000     0.790266666667     0          
T        Si     0.517333333333     0.691850000000     0.773533333333     0          
T        Si     0.477600000000     0.638600000000     0.691433333333     0          
T        Si     0.758866666667     0.059150000000     0.038800000000     0          
T        Si     0.765033333333     0.057350000000     0.123600000000     0          
T        Si     0.684000000000     0.058150000000     0.106866666667     0          
T        Si     0.977600000000     0.111400000000     0.024766666667     0          
T        Si     0.666666666667     0.121600000000     0.166666666667     0          
T        Si     0.907800000000     0.059150000000     0.294533333333     0          
T        Si     0.901633333333     0.057350000000     0.209733333333     0          
T        Si     0.982666666667     0.058150000000     0.226466666667     0          
T        Si     0.689066666667     0.111400000000     0.308566666667     0          
T        Si     0.907800000000     0.440850000000     0.294533333333     0          
T        Si     0.901633333333     0.442650000000     0.209733333333     0          
T        Si     0.982666666667     0.441850000000     0.226466666667     0          
T        Si     0.689066666667     0.388600000000     0.308566666667     0          
T        Si     0.666666666667     0.378400000000     0.166666666667     0          
T        Si     0.758866666667     0.440850000000     0.038800000000     0          
T        Si     0.765033333333     0.442650000000     0.123600000000     0          
T        Si     0.684000000000     0.441850000000     0.106866666667     0          
T        Si     0.977600000000     0.388600000000     0.024766666667     0          
T        Si     0.925533333333     0.309150000000     0.038800000000     0          
T        Si     0.931700000000     0.307350000000     0.123600000000     0          
T        Si     0.850666666667     0.308150000000     0.106866666667     0          
T        Si     0.810933333333     0.361400000000     0.024766666667     0          
T        Si     0.833333333333     0.371600000000     0.166666666667     0          
T        Si     0.741133333333     0.309150000000     0.294533333333     0          
T        Si     0.734966666667     0.307350000000     0.209733333333     0          
T        Si     0.816000000000     0.308150000000     0.226466666667     0          
T        Si     0.855733333333     0.361400000000     0.308566666667     0          
T        Si     0.741133333333     0.190850000000     0.294533333333     0          
T        Si     0.734966666667     0.192650000000     0.209733333333     0          
T        Si     0.816000000000     0.191850000000     0.226466666667     0          
T        Si     0.855733333333     0.138600000000     0.308566666667     0          
T        Si     0.833333333333     0.128400000000     0.166666666667     0          
T        Si     0.925533333333     0.190850000000     0.038800000000     0          
T        Si     0.931700000000     0.192650000000     0.123600000000     0          
T        Si     0.850666666667     0.191850000000     0.106866666667     0          
T        Si     0.810933333333     0.138600000000     0.024766666667     0          
T        Si     0.758866666667     0.059150000000     0.372133333333     0          
T        Si     0.765033333333     0.057350000000     0.456933333333     0          
T        Si     0.684000000000     0.058150000000     0.440200000000     0          
T        Si     0.977600000000     0.111400000000     0.358100000000     0          
T        Si     0.666666666667     0.121600000000     0.500000000000     0          
T        Si     0.907800000000     0.059150000000     0.627866666667     0          
T        Si     0.901633333333     0.057350000000     0.543066666667     0          
T        Si     0.982666666667     0.058150000000     0.559800000000     0          
T        Si     0.689066666667     0.111400000000     0.641900000000     0          
T        Si     0.907800000000     0.440850000000     0.627866666667     0          
T        Si     0.901633333333     0.442650000000     0.543066666667     0          
T        Si     0.982666666667     0.441850000000     0.559800000000     0          
T        Si     0.689066666667     0.388600000000     0.641900000000     0          
T        Si     0.666666666667     0.378400000000     0.500000000000     0          
T        Si     0.758866666667     0.440850000000     0.372133333333     0          
T        Si     0.765033333333     0.442650000000     0.456933333333     0          
T        Si     0.684000000000     0.441850000000     0.440200000000     0          
T        Si     0.977600000000     0.388600000000     0.358100000000     0          
T        Si     0.925533333333     0.309150000000     0.372133333333     0          
T        Si     0.931700000000     0.307350000000     0.456933333333     0          
T        Si     0.850666666667     0.308150000000     0.440200000000     0          
T        Si     0.810933333333     0.361400000000     0.358100000000     0          
T        Si     0.833333333333     0.371600000000     0.500000000000     0          
T        Si     0.741133333333     0.309150000000     0.627866666667     0          
T        Si     0.734966666667     0.307350000000     0.543066666667     0          
T        Si     0.816000000000     0.308150000000     0.559800000000     0          
T        Si     0.855733333333     0.361400000000     0.641900000000     0          
T        Si     0.741133333333     0.190850000000     0.627866666667     0          
T        Si     0.734966666667     0.192650000000     0.543066666667     0          
T        Si     0.816000000000     0.191850000000     0.559800000000     0          
T        Si     0.855733333333     0.138600000000     0.641900000000     0          
T        Si     0.833333333333     0.128400000000     0.500000000000     0          
T        Si     0.925533333333     0.190850000000     0.372133333333     0          
T        Si     0.931700000000     0.192650000000     0.456933333333     0          
T        Si     0.850666666667     0.191850000000     0.440200000000     0          
T        Si     0.810933333333     0.138600000000     0.358100000000     0          
T        Si     0.758866666667     0.059150000000     0.705466666667     0          
T        Si     0.765033333333     0.057350000000     0.790266666667     0          
T        Si     0.684000000000     0.058150000000     0.773533333333     0          
T        Si     0.977600000000     0.111400000000     0.691433333333     0          
T        Si     0.666666666667     0.121600000000     0.833333333333     0          
T        Si     0.907800000000     0.059150000000     0.961200000000     0          
T        Si     0.901633333333     0.057350000000     0.876400000000     0          
T        Si     0.982666666667     0.058150000000     0.893133333333     0          
T        Si     0.689066666667     0.111400000000     0.975233333333     0          
T        Si     0.907800000000     0.440850000000     0.961200000000     0          
T        Si     0.901633333333     0.442650000000     0.876400000000     0          
T        Si     0.982666666667     0.441850000000     0.893133333333     0          
T        Si     0.689066666667     0.388600000000     0.975233333333     0          
T        Si     0.666666666667     0.378400000000     0.833333333333     0          
T        Si     0.758866666667     0.440850000000     0.705466666667     0          
T        Si     0.765033333333     0.442650000000     0.790266666667     0          
T        Si     0.684000000000     0.441850000000     0.773533333333     0          
T        Si     0.977600000000     0.388600000000     0.691433333333     0          
T        Si     0.925533333333     0.309150000000     0.705466666667     0          
T        Si     0.931700000000     0.307350000000     0.790266666667     0          
T        Si     0.850666666667     0.308150000000     0.773533333333     0          
T        Si     0.810933333333     0.361400000000     0.691433333333     0          
T        Si     0.833333333333     0.371600000000     0.833333333333     0          
T        Si     0.741133333333     0.309150000000     0.961200000000     0          
T        Si     0.734966666667     0.307350000000     0.876400000000     0          
T        Si     0.816000000000     0.308150000000     0.893133333333     0          
T        Si     0.855733333333     0.361400000000     0.975233333333     0          
T        Si     0.741133333333     0.190850000000     0.961200000000     0          
T        Si     0.734966666667     0.192650000000     0.876400000000     0          
T        Si     0.816000000000     0.191850000000     0.893133333333     0          
T        Si     0.855733333333     0.138600000000     0.975233333333     0          
T        Si     0.833333333333     0.128400000000     0.833333333333     0          
T        Si     0.925533333333     0.190850000000     0.705466666667     0          
T        Si     0.931700000000     0.192650000000     0.790266666667     0          
T        Si     0.850666666667     0.191850000000     0.773533333333     0          
T        Si     0.810933333333     0.138600000000     0.691433333333     0          
T        Si     0.758866666667     0.559150000000     0.038800000000     0          
T        Si     0.765033333333     0.557350000000     0.123600000000     0          
T        Si     0.684000000000     0.558150000000     0.106866666667     0          
T        Si     0.977600000000     0.611400000000     0.024766666667     0          
T        Si     0.666666666667     0.621600000000     0.166666666667     0          
T        Si     0.907800000000     0.559150000000     0.294533333333     0          
T        Si     0.901633333333     0.557350000000     0.209733333333     0          
T        Si     0.982666666667     0.558150000000     0.226466666667     0          
T        Si     0.689066666667     0.611400000000     0.308566666667     0          
T        Si     0.907800000000     0.940850000000     0.294533333333     0          
T        Si     0.901633333333     0.942650000000     0.209733333333     0          
T        Si     0.982666666667     0.941850000000     0.226466666667     0          
T        Si     0.689066666667     0.888600000000     0.308566666667     0          
T        Si     0.666666666667     0.878400000000     0.166666666667     0          
T        Si     0.758866666667     0.940850000000     0.038800000000     0          
T        Si     0.765033333333     0.942650000000     0.123600000000     0          
T        Si     0.684000000000     0.941850000000     0.106866666667     0          
T        Si     0.977600000000     0.888600000000     0.024766666667     0          
T        Si     0.925533333333     0.809150000000     0.038800000000     0          
T        Si     0.931700000000     0.807350000000     0.123600000000     0          
T        Si     0.850666666667     0.808150000000     0.106866666667     0          
T        Si     0.810933333333     0.861400000000     0.024766666667     0          
T        Si     0.833333333333     0.871600000000     0.166666666667     0          
T        Si     0.741133333333     0.809150000000     0.294533333333     0          
T        Si     0.734966666667     0.807350000000     0.209733333333     0          
T        Si     0.816000000000     0.808150000000     0.226466666667     0          
T        Si     0.855733333333     0.861400000000     0.308566666667     0          
T        Si     0.741133333333     0.690850000000     0.294533333333     0          
T        Si     0.734966666667     0.692650000000     0.209733333333     0          
T        Si     0.816000000000     0.691850000000     0.226466666667     0          
T        Si     0.855733333333     0.638600000000     0.308566666667     0          
T        Si     0.833333333333     0.628400000000     0.166666666667     0          
T        Si     0.925533333333     0.690850000000     0.038800000000     0          
T        Si     0.931700000000     0.692650000000     0.123600000000     0          
T        Si     0.850666666667     0.691850000000     0.106866666667     0          
T        Si     0.810933333333     0.638600000000     0.024766666667     0          
T        Si     0.758866666667     0.559150000000     0.372133333333     0          
T        Si     0.765033333333     0.557350000000     0.456933333333     0          
T        Si     0.684000000000     0.558150000000     0.440200000000     0          
T        Si     0.977600000000     0.611400000000     0.358100000000     0          
T        Si     0.666666666667     0.621600000000     0.500000000000     0          
T        Si     0.907800000000     0.559150000000     0.627866666667     0          
T        Si     0.901633333333     0.557350000000     0.543066666667     0          
T        Si     0.982666666667     0.558150000000     0.559800000000     0          
T        Si     0.689066666667     0.611400000000     0.641900000000     0          
T        Si     0.907800000000     0.940850000000     0.627866666667     0          
T        Si     0.901633333333     0.942650000000     0.543066666667     0          
T        Si     0.982666666667     0.941850000000     0.559800000000     0          
T        Si     0.689066666667     0.888600000000     0.641900000000     0          
T        Si     0.666666666667     0.878400000000     0.500000000000     0          
T        Si     0.758866666667     0.940850000000     0.372133333333     0          
T        Si     0.765033333333     0.942650000000     0.456933333333     0          
T        Si     0.684000000000     0.941850000000     0.440200000000     0          
T        Si     0.977600000000     0.888600000000     0.358100000000     0          
T        Si     0.925533333333     0.809150000000     0.372133333333     0          
T        Si     0.931700000000     0.807350000000     0.456933333333     0          
T        Si     0.850666666667     0.808150000000     0.440200000000     0          
T        Si     0.810933333333     0.861400000000     0.358100000000     0          
T        Si     0.833333333333     0.871600000000     0.500000000000     0          
T        Si     0.741133333333     0.809150000000     0.627866666667     0          
T        Si     0.734966666667     0.807350000000     0.543066666667     0          
T        Si     0.816000000000     0.808150000000     0.559800000000     0          
T        Si     0.855733333333     0.861400000000     0.641900000000     0          
T        Si     0.741133333333     0.690850000000     0.627866666667     0          
T        Si     0.734966666667     0.692650000000     0.543066666667     0          
T        Si     0.816000000000     0.691850000000     0.559800000000     0          
T        Si     0.855733333333     0.638600000000     0.641900000000     0          
T        Si     0.833333333333     0.628400000000     0.500000000000     0          
T        Si     0.925533333333     0.690850000000     0.372133333333     0          
T        Si     0.931700000000     0.692650000000     0.456933333333     0          
T        Si     0.850666666667     0.691850000000     0.440200000000     0          
T        Si     0.810933333333     0.638600000000     0.358100000000     0          
T        Si     0.758866666667     0.559150000000     0.705466666667     0          
T        Si     0.765033333333     0.557350000000     0.790266666667     0          
T        Si     0.684000000000     0.558150000000     0.773533333333     0          
T        Si     0.977600000000     0.611400000000     0.691433333333     0          
T        Si     0.666666666667     0.621600000000     0.833333333333     0          
T        Si     0.907800000000     0.559150000000     0.961200000000     0          
T        Si     0.901633333333     0.557350000000     0.876400000000     0          
T        Si     0.982666666667     0.558150000000     0.893133333333     0          
T        Si     0.689066666667     0.611400000000     0.975233333333     0          
T        Si     0.907800000000     0.940850000000     0.961200000000     0          
T        Si     0.901633333333     0.942650000000     0.876400000000     0          
T        Si     0.982666666667     0.941850000000     0.893133333333     0          
T        Si     0.689066666667     0.888600000000     0.975233333333     0          
T        Si     0.666666666667     0.878400000000     0.833333333333     0          
T        Si     0.758866666667     0.940850000000     0.705466666667     0          
T        Si     0.765033333333     0.942650000000     0.790266666667     0          
T        Si     0.684000000000     0.941850000000     0.773533333333     0          
T        Si     0.977600000000     0.888600000000     0.691433333333     0          
T        Si     0.925533333333     0.809150000000     0.705466666667     0          
T        Si     0.931700000000     0.807350000000     0.790266666667     0          
T        Si     0.850666666667     0.808150000000     0.773533333333     0          
T        Si     0.810933333333     0.861400000000     0.691433333333     0          
T        Si     0.833333333333     0.871600000000     0.833333333333     0          
T        Si     0.741133333333     0.809150000000     0.961200000000     0          
T        Si     0.734966666667     0.807350000000     0.876400000000     0          
T        Si     0.816000000000     0.808150000000     0.893133333333     0          
T        Si     0.855733333333     0.861400000000     0.975233333333     0          
T        Si     0.741133333333     0.690850000000     0.961200000000     0          
T        Si     0.734966666667     0.692650000000     0.876400000000     0          
T        Si     0.816000000000     0.691850000000     0.893133333333     0          
T        Si     0.855733333333     0.638600000000     0.975233333333     0          
T        Si     0.833333333333     0.628400000000     0.833333333333     0          
T        Si     0.925533333333     0.690850000000     0.705466666667     0          
T        Si     0.931700000000     0.692650000000     0.790266666667     0          
T        Si     0.850666666667     0.691850000000     0.773533333333     0          
T        Si     0.810933333333     0.638600000000     0.691433333333     0          
O        O      0.053966666667     0.072000000000     0.001333333333     0          
O        O      0.101033333333     0.000000000000     0.039033333333     0          
O        O      0.125500000000     0.091100000000     0.036033333333     0          
O        O      0.088466666667     0.073750000000     0.078800000000     0          
O        O      0.112866666667     0.000000000000     0.130200000000     0          
O        O      0.130266666667     0.093500000000     0.153533333333     0          
O        O      0.061700000000     0.061600000000     0.131766666667     0          
O        O      0.006066666667     0.084250000000     0.064500000000     0          
O        O      0.004800000000     0.000000000000     0.100733333333     0          
O        O      0.330166666667     0.086650000000     0.130200000000     0          
O        O      0.000000000000     0.130450000000     0.000000000000     0          
O        O      0.279366666667     0.072000000000     0.332000000000     0          
O        O      0.232300000000     0.000000000000     0.294300000000     0          
O        O      0.207833333333     0.091100000000     0.297300000000     0          
O        O      0.244866666667     0.073750000000     0.254533333333     0          
O        O      0.220466666667     0.000000000000     0.203133333333     0          
O        O      0.203066666667     0.093500000000     0.179800000000     0          
O        O      0.271633333333     0.061600000000     0.201566666667     0          
O        O      0.327266666667     0.084250000000     0.268833333333     0          
O        O      0.328533333333     0.000000000000     0.232600000000     0          
O        O      0.003166666667     0.086650000000     0.203133333333     0          
O        O      0.279366666667     0.428000000000     0.332000000000     0          
O        O      0.207833333333     0.408900000000     0.297300000000     0          
O        O      0.244866666667     0.426250000000     0.254533333333     0          
O        O      0.203066666667     0.406500000000     0.179800000000     0          
O        O      0.271633333333     0.438400000000     0.201566666667     0          
O        O      0.327266666667     0.415750000000     0.268833333333     0          
O        O      0.003166666667     0.413350000000     0.203133333333     0          
O        O      0.000000000000     0.369550000000     0.000000000000     0          
O        O      0.053966666667     0.428000000000     0.001333333333     0          
O        O      0.125500000000     0.408900000000     0.036033333333     0          
O        O      0.088466666667     0.426250000000     0.078800000000     0          
O        O      0.130266666667     0.406500000000     0.153533333333     0          
O        O      0.061700000000     0.438400000000     0.131766666667     0          
O        O      0.006066666667     0.415750000000     0.064500000000     0          
O        O      0.330166666667     0.413350000000     0.130200000000     0          
O        O      0.220633333333     0.322000000000     0.001333333333     0          
O        O      0.267700000000     0.250000000000     0.039033333333     0          
O        O      0.292166666667     0.341100000000     0.036033333333     0          
O        O      0.255133333333     0.323750000000     0.078800000000     0          
O        O      0.279533333333     0.250000000000     0.130200000000     0          
O        O      0.296933333333     0.343500000000     0.153533333333     0          
O        O      0.228366666667     0.311600000000     0.131766666667     0          
O        O      0.172733333333     0.334250000000     0.064500000000     0          
O        O      0.171466666667     0.250000000000     0.100733333333     0          
O        O      0.163500000000     0.336650000000     0.130200000000     0          
O        O      0.166666666667     0.380450000000     0.000000000000     0          
O        O      0.112700000000     0.322000000000     0.332000000000     0          
O        O      0.065633333333     0.250000000000     0.294300000000     0          
O        O      0.041166666667     0.341100000000     0.297300000000     0          
O        O      0.078200000000     0.323750000000     0.254533333333     0          
O        O      0.053800000000     0.250000000000     0.203133333333     0          
O        O      0.036400000000     0.343500000000     0.179800000000     0          
O        O      0.104966666667     0.311600000000     0.201566666667     0          
O        O      0.160600000000     0.334250000000     0.268833333333     0          
O        O      0.161866666667     0.250000000000     0.232600000000     0          
O        O      0.169833333333     0.336650000000     0.203133333333     0          
O        O      0.112700000000     0.178000000000     0.332000000000     0          
O        O      0.041166666667     0.158900000000     0.297300000000     0          
O        O      0.078200000000     0.176250000000     0.254533333333     0          
O        O      0.036400000000     0.156500000000     0.179800000000     0          
O        O      0.104966666667     0.188400000000     0.201566666667     0          
O        O      0.160600000000     0.165750000000     0.268833333333     0          
O        O      0.169833333333     0.163350000000     0.203133333333     0          
O        O      0.166666666667     0.119550000000     0.000000000000     0          
O        O      0.220633333333     0.178000000000     0.001333333333     0          
O        O      0.292166666667     0.158900000000     0.036033333333     0          
O        O      0.255133333333     0.176250000000     0.078800000000     0          
O        O      0.296933333333     0.156500000000     0.153533333333     0          
O        O      0.228366666667     0.188400000000     0.131766666667     0          
O        O      0.172733333333     0.165750000000     0.064500000000     0          
O        O      0.163500000000     0.163350000000     0.130200000000     0          
O        O      0.053966666667     0.072000000000     0.334666666667     0          
O        O      0.101033333333     0.000000000000     0.372366666667     0          
O        O      0.125500000000     0.091100000000     0.369366666667     0          
O        O      0.088466666667     0.073750000000     0.412133333333     0          
O        O      0.112866666667     0.000000000000     0.463533333333     0          
O        O      0.130266666667     0.093500000000     0.486866666667     0          
O        O      0.061700000000     0.061600000000     0.465100000000     0          
O        O      0.006066666667     0.084250000000     0.397833333333     0          
O        O      0.004800000000     0.000000000000     0.434066666667     0          
O        O      0.330166666667     0.086650000000     0.463533333333     0          
O        O      0.000000000000     0.130450000000     0.333333333333     0          
O        O      0.279366666667     0.072000000000     0.665333333333     0          
O        O      0.232300000000     0.000000000000     0.627633333333     0          
O        O      0.207833333333     0.091100000000     0.630633333333     0          
O        O      0.244866666667     0.073750000000     0.587866666667     0          
O        O      0.220466666667     0.000000000000     0.536466666667     0          
O        O      0.203066666667     0.093500000000     0.513133333333     0          
O        O      0.271633333333     0.061600000000     0.534900000000     0          
O        O      0.327266666667     0.084250000000     0.602166666667     0          
O        O      0.328533333333     0.000000000000     0.565933333333     0          
O        O      0.003166666667     0.086650000000     0.536466666667     0          
O        O      0.279366666667     0.428000000000     0.665333333333     0          
O        O      0.207833333333     0.408900000000     0.630633333333     0          
O        O      0.244866666667     0.426250000000     0.587866666667     0          
O        O      0.203066666667     0.406500000000     0.513133333333     0          
O        O      0.271633333333     0.438400000000     0.534900000000     0          
O        O      0.327266666667     0.415750000000     0.602166666667     0          
O        O      0.003166666667     0.413350000000     0.536466666667     0          
O        O      0.000000000000     0.369550000000     0.333333333333     0          
O        O      0.053966666667     0.428000000000     0.334666666667     0          
O        O      0.125500000000     0.408900000000     0.369366666667     0          
O        O      0.088466666667     0.426250000000     0.412133333333     0          
O        O      0.130266666667     0.406500000000     0.486866666667     0          
O        O      0.061700000000     0.438400000000     0.465100000000     0          
O        O      0.006066666667     0.415750000000     0.397833333333     0          
O        O      0.330166666667     0.413350000000     0.463533333333     0          
O        O      0.220633333333     0.322000000000     0.334666666667     0          
O        O      0.267700000000     0.250000000000     0.372366666667     0          
O        O      0.292166666667     0.341100000000     0.369366666667     0          
O        O      0.255133333333     0.323750000000     0.412133333333     0          
O        O      0.279533333333     0.250000000000     0.463533333333     0          
O        O      0.296933333333     0.343500000000     0.486866666667     0          
O        O      0.228366666667     0.311600000000     0.465100000000     0          
O        O      0.172733333333     0.334250000000     0.397833333333     0          
O        O      0.171466666667     0.250000000000     0.434066666667     0          
O        O      0.163500000000     0.336650000000     0.463533333333     0          
O        O      0.166666666667     0.380450000000     0.333333333333     0          
O        O      0.112700000000     0.322000000000     0.665333333333     0          
O        O      0.065633333333     0.250000000000     0.627633333333     0          
O        O      0.041166666667     0.341100000000     0.630633333333     0          
O        O      0.078200000000     0.323750000000     0.587866666667     0          
O        O      0.053800000000     0.250000000000     0.536466666667     0          
O        O      0.036400000000     0.343500000000     0.513133333333     0          
O        O      0.104966666667     0.311600000000     0.534900000000     0          
O        O      0.160600000000     0.334250000000     0.602166666667     0          
O        O      0.161866666667     0.250000000000     0.565933333333     0          
O        O      0.169833333333     0.336650000000     0.536466666667     0          
O        O      0.112700000000     0.178000000000     0.665333333333     0          
O        O      0.041166666667     0.158900000000     0.630633333333     0          
O        O      0.078200000000     0.176250000000     0.587866666667     0          
O        O      0.036400000000     0.156500000000     0.513133333333     0          
O        O      0.104966666667     0.188400000000     0.534900000000     0          
O        O      0.160600000000     0.165750000000     0.602166666667     0          
O        O      0.169833333333     0.163350000000     0.536466666667     0          
O        O      0.166666666667     0.119550000000     0.333333333333     0          
O        O      0.220633333333     0.178000000000     0.334666666667     0          
O        O      0.292166666667     0.158900000000     0.369366666667     0          
O        O      0.255133333333     0.176250000000     0.412133333333     0          
O        O      0.296933333333     0.156500000000     0.486866666667     0          
O        O      0.228366666667     0.188400000000     0.465100000000     0          
O        O      0.172733333333     0.165750000000     0.397833333333     0          
O        O      0.163500000000     0.163350000000     0.463533333333     0          
O        O      0.053966666667     0.072000000000     0.668000000000     0          
O        O      0.101033333333     0.000000000000     0.705700000000     0          
O        O      0.125500000000     0.091100000000     0.702700000000     0          
O        O      0.088466666667     0.073750000000     0.745466666667     0          
O        O      0.112866666667     0.000000000000     0.796866666667     0          
O        O      0.130266666667     0.093500000000     0.820200000000     0          
O        O      0.061700000000     0.061600000000     0.798433333333     0          
O        O      0.006066666667     0.084250000000     0.731166666667     0          
O        O      0.004800000000     0.000000000000     0.767400000000     0          
O        O      0.330166666667     0.086650000000     0.796866666667     0          
O        O      0.000000000000     0.130450000000     0.666666666667     0          
O        O      0.279366666667     0.072000000000     0.998666666667     0          
O        O      0.232300000000     0.000000000000     0.960966666667     0          
O        O      0.207833333333     0.091100000000     0.963966666667     0          
O        O      0.244866666667     0.073750000000     0.921200000000     0          
O        O      0.220466666667     0.000000000000     0.869800000000     0          
O        O      0.203066666667     0.093500000000     0.846466666667     0          
O        O      0.271633333333     0.061600000000     0.868233333333     0          
O        O      0.327266666667     0.084250000000     0.935500000000     0          
O        O      0.328533333333     0.000000000000     0.899266666667     0          
O        O      0.003166666667     0.086650000000     0.869800000000     0          
O        O      0.279366666667     0.428000000000     0.998666666667     0          
O        O      0.207833333333     0.408900000000     0.963966666667     0          
O        O      0.244866666667     0.426250000000     0.921200000000     0          
O        O      0.203066666667     0.406500000000     0.846466666667     0          
O        O      0.271633333333     0.438400000000     0.868233333333     0          
O        O      0.327266666667     0.415750000000     0.935500000000     0          
O        O      0.003166666667     0.413350000000     0.869800000000     0          
O        O      0.000000000000     0.369550000000     0.666666666667     0          
O        O      0.053966666667     0.428000000000     0.668000000000     0          
O        O      0.125500000000     0.408900000000     0.702700000000     0          
O        O      0.088466666667     0.426250000000     0.745466666667     0          
O        O      0.130266666667     0.406500000000     0.820200000000     0          
O        O      0.061700000000     0.438400000000     0.798433333333     0          
O        O      0.006066666667     0.415750000000     0.731166666667     0          
O        O      0.330166666667     0.413350000000     0.796866666667     0          
O        O      0.220633333333     0.322000000000     0.668000000000     0          
O        O      0.267700000000     0.250000000000     0.705700000000     0          
O        O      0.292166666667     0.341100000000     0.702700000000     0          
O        O      0.255133333333     0.323750000000     0.745466666667     0          
O        O      0.279533333333     0.250000000000     0.796866666667     0          
O        O      0.296933333333     0.343500000000     0.820200000000     0          
O        O      0.228366666667     0.311600000000     0.798433333333     0          
O        O      0.172733333333     0.334250000000     0.731166666667     0          
O        O      0.171466666667     0.250000000000     0.767400000000     0          
O        O      0.163500000000     0.336650000000     0.796866666667     0          
O        O      0.166666666667     0.380450000000     0.666666666667     0          
O        O      0.112700000000     0.322000000000     0.998666666667     0          
O        O      0.065633333333     0.250000000000     0.960966666667     0          
O        O      0.041166666667     0.341100000000     0.963966666667     0          
O        O      0.078200000000     0.323750000000     0.921200000000     0          
O        O      0.053800000000     0.250000000000     0.869800000000     0          
O        O      0.036400000000     0.343500000000     0.846466666667     0          
O        O      0.104966666667     0.311600000000     0.868233333333     0          
O        O      0.160600000000     0.334250000000     0.935500000000     0          
O        O      0.161866666667     0.250000000000     0.899266666667     0          
O        O      0.169833333333     0.336650000000     0.869800000000     0          
O        O      0.112700000000     0.178000000000     0.998666666667     0          
O        O      0.041166666667     0.158900000000     0.963966666667     0          
O        O      0.078200000000     0.176250000000     0.921200000000     0          
O        O      0.036400000000     0.156500000000     0.846466666667     0          
O        O      0.104966666667     0.188400000000     0.868233333333     0          
O        O      0.160600000000     0.165750000000     0.935500000000     0          
O        O      0.169833333333     0.163350000000     0.869800000000     0          
O        O      0.166666666667     0.119550000000     0.666666666667     0          
O        O      0.220633333333     0.178000000000     0.668000000000     0          
O        O      0.292166666667     0.158900000000     0.702700000000     0          
O        O      0.255133333333     0.176250000000     0.745466666667     0          
O        O      0.296933333333     0.156500000000     0.820200000000     0          
O        O      0.228366666667     0.188400000000     0.798433333333     0          
O        O      0.172733333333     0.165750000000     0.731166666667     0          
O        O      0.163500000000     0.163350000000     0.796866666667     0          
O        O      0.053966666667     0.572000000000     0.001333333333     0          
O        O      0.101033333333     0.500000000000     0.039033333333     0          
O        O      0.125500000000     0.591100000000     0.036033333333     0          
O        O      0.088466666667     0.573750000000     0.078800000000     0          
O        O      0.112866666667     0.500000000000     0.130200000000     0          
O        O      0.130266666667     0.593500000000     0.153533333333     0          
O        O      0.061700000000     0.561600000000     0.131766666667     0          
O        O      0.006066666667     0.584250000000     0.064500000000     0          
O        O      0.004800000000     0.500000000000     0.100733333333     0          
O        O      0.330166666667     0.586650000000     0.130200000000     0          
O        O      0.000000000000     0.630450000000     0.000000000000     0          
O        O      0.279366666667     0.572000000000     0.332000000000     0          
O        O      0.232300000000     0.500000000000     0.294300000000     0          
O        O      0.207833333333     0.591100000000     0.297300000000     0          
O        O      0.244866666667     0.573750000000     0.254533333333     0          
O        O      0.220466666667     0.500000000000     0.203133333333     0          
O        O      0.203066666667     0.593500000000     0.179800000000     0          
O        O      0.271633333333     0.561600000000     0.201566666667     0          
O        O      0.327266666667     0.584250000000     0.268833333333     0          
O        O      0.328533333333     0.500000000000     0.232600000000     0          
O        O      0.003166666667     0.586650000000     0.203133333333     0          
O        O      0.279366666667     0.928000000000     0.332000000000     0          
O        O      0.207833333333     0.908900000000     0.297300000000     0          
O        O      0.244866666667     0.926250000000     0.254533333333     0          
O        O      0.203066666667     0.906500000000     0.179800000000     0          
O        O      0.271633333333     0.938400000000     0.201566666667     0          
O        O      0.327266666667     0.915750000000     0.268833333333     0          
O        O      0.003166666667     0.913350000000     0.203133333333     0          
O        O      0.000000000000     0.869550000000     0.000000000000     0          
O        O      0.053966666667     0.928000000000     0.001333333333     0          
O        O      0.125500000000     0.908900000000     0.036033333333     0          
O        O      0.088466666667     0.926250000000     0.078800000000     0          
O        O      0.130266666667     0.906500000000     0.153533333333     0          
O        O      0.061700000000     0.938400000000     0.131766666667     0          
O        O      0.006066666667     0.915750000000     0.064500000000     0          
O        O      0.330166666667     0.913350000000     0.130200000000     0          
O        O      0.220633333333     0.822000000000     0.001333333333     0          
O        O      0.267700000000     0.750000000000     0.039033333333     0          
O        O      0.292166666667     0.841100000000     0.036033333333     0          
O        O      0.255133333333     0.823750000000     0.078800000000     0          
O        O      0.279533333333     0.750000000000     0.130200000000     0          
O        O      0.296933333333     0.843500000000     0.153533333333     0          
O        O      0.228366666667     0.811600000000     0.131766666667     0          
O        O      0.172733333333     0.834250000000     0.064500000000     0          
O        O      0.171466666667     0.750000000000     0.100733333333     0          
O        O      0.163500000000     0.836650000000     0.130200000000     0          
O        O      0.166666666667     0.880450000000     0.000000000000     0          
O        O      0.112700000000     0.822000000000     0.332000000000     0          
O        O      0.065633333333     0.750000000000     0.294300000000     0          
O        O      0.041166666667     0.841100000000     0.297300000000     0          
O        O      0.078200000000     0.823750000000     0.254533333333     0          
O        O      0.053800000000     0.750000000000     0.203133333333     0          
O        O      0.036400000000     0.843500000000     0.179800000000     0          
O        O      0.104966666667     0.811600000000     0.201566666667     0          
O        O      0.160600000000     0.834250000000     0.268833333333     0          
O        O      0.161866666667     0.750000000000     0.232600000000     0          
O        O      0.169833333333     0.836650000000     0.203133333333     0          
O        O      0.112700000000     0.678000000000     0.332000000000     0          
O        O      0.041166666667     0.658900000000     0.297300000000     0          
O        O      0.078200000000     0.676250000000     0.254533333333     0          
O        O      0.036400000000     0.656500000000     0.179800000000     0          
O        O      0.104966666667     0.688400000000     0.201566666667     0          
O        O      0.160600000000     0.665750000000     0.268833333333     0          
O        O      0.169833333333     0.663350000000     0.203133333333     0          
O        O      0.166666666667     0.619550000000     0.000000000000     0          
O        O      0.220633333333     0.678000000000     0.001333333333     0          
O        O      0.292166666667     0.658900000000     0.036033333333     0          
O        O      0.255133333333     0.676250000000     0.078800000000     0          
O        O      0.296933333333     0.656500000000     0.153533333333     0          
O        O      0.228366666667     0.688400000000     0.131766666667     0          
O        O      0.172733333333     0.665750000000     0.064500000000     0          
O        O      0.163500000000     0.663350000000     0.130200000000     0          
O        O      0.053966666667     0.572000000000     0.334666666667     0          
O        O      0.101033333333     0.500000000000     0.372366666667     0          
O        O      0.125500000000     0.591100000000     0.369366666667     0          
O        O      0.088466666667     0.573750000000     0.412133333333     0          
O        O      0.112866666667     0.500000000000     0.463533333333     0          
O        O      0.130266666667     0.593500000000     0.486866666667     0          
O        O      0.061700000000     0.561600000000     0.465100000000     0          
O        O      0.006066666667     0.584250000000     0.397833333333     0          
O        O      0.004800000000     0.500000000000     0.434066666667     0          
O        O      0.330166666667     0.586650000000     0.463533333333     0          
O        O      0.000000000000     0.630450000000     0.333333333333     0          
O        O      0.279366666667     0.572000000000     0.665333333333     0          
O        O      0.232300000000     0.500000000000     0.627633333333     0          
O        O      0.207833333333     0.591100000000     0.630633333333     0          
O        O      0.244866666667     0.573750000000     0.587866666667     0          
O        O      0.220466666667     0.500000000000     0.536466666667     0          
O        O      0.203066666667     0.593500000000     0.513133333333     0          
O        O      0.271633333333     0.561600000000     0.534900000000     0          
O        O      0.327266666667     0.584250000000     0.602166666667     0          
O        O      0.328533333333     0.500000000000     0.565933333333     0          
O        O      0.003166666667     0.586650000000     0.536466666667     0          
O        O      0.279366666667     0.928000000000     0.665333333333     0          
O        O      0.207833333333     0.908900000000     0.630633333333     0          
O        O      0.244866666667     0.926250000000     0.587866666667     0          
O        O      0.203066666667     0.906500000000     0.513133333333     0          
O        O      0.271633333333     0.938400000000     0.534900000000     0          
O        O      0.327266666667     0.915750000000     0.602166666667     0          
O        O      0.003166666667     0.913350000000     0.536466666667     0          
O        O      0.000000000000     0.869550000000     0.333333333333     0          
O        O      0.053966666667     0.928000000000     0.334666666667     0          
O        O      0.125500000000     0.908900000000     0.369366666667     0          
O        O      0.088466666667     0.926250000000     0.412133333333     0          
O        O      0.130266666667     0.906500000000     0.486866666667     0          
O        O      0.061700000000     0.938400000000     0.465100000000     0          
O        O      0.006066666667     0.915750000000     0.397833333333     0          
O        O      0.330166666667     0.913350000000     0.463533333333     0          
O        O      0.220633333333     0.822000000000     0.334666666667     0          
O        O      0.267700000000     0.750000000000     0.372366666667     0          
O        O      0.292166666667     0.841100000000     0.369366666667     0          
O        O      0.255133333333     0.823750000000     0.412133333333     0          
O        O      0.279533333333     0.750000000000     0.463533333333     0          
O        O      0.296933333333     0.843500000000     0.486866666667     0          
O        O      0.228366666667     0.811600000000     0.465100000000     0          
O        O      0.172733333333     0.834250000000     0.397833333333     0          
O        O      0.171466666667     0.750000000000     0.434066666667     0          
O        O      0.163500000000     0.836650000000     0.463533333333     0          
O        O      0.166666666667     0.880450000000     0.333333333333     0          
O        O      0.112700000000     0.822000000000     0.665333333333     0          
O        O      0.065633333333     0.750000000000     0.627633333333     0          
O        O      0.041166666667     0.841100000000     0.630633333333     0          
O        O      0.078200000000     0.823750000000     0.587866666667     0          
O        O      0.053800000000     0.750000000000     0.536466666667     0          
O        O      0.036400000000     0.843500000000     0.513133333333     0          
O        O      0.104966666667     0.811600000000     0.534900000000     0          
O        O      0.160600000000     0.834250000000     0.602166666667     0          
O        O      0.161866666667     0.750000000000     0.565933333333     0          
O        O      0.169833333333     0.836650000000     0.536466666667     0          
O        O      0.112700000000     0.678000000000     0.665333333333     0          
O        O      0.041166666667     0.658900000000     0.630633333333     0          
O        O      0.078200000000     0.676250000000     0.587866666667     0          
O        O      0.036400000000     0.656500000000     0.513133333333     0          
O        O      0.104966666667     0.688400000000     0.534900000000     0          
O        O      0.160600000000     0.665750000000     0.602166666667     0          
O        O      0.169833333333     0.663350000000     0.536466666667     0          
O        O      0.166666666667     0.619550000000     0.333333333333     0          
O        O      0.220633333333     0.678000000000     0.334666666667     0          
O        O      0.292166666667     0.658900000000     0.369366666667     0          
O        O      0.255133333333     0.676250000000     0.412133333333     0          
O        O      0.296933333333     0.656500000000     0.486866666667     0          
O        O      0.228366666667     0.688400000000     0.465100000000     0          
O        O      0.172733333333     0.665750000000     0.397833333333     0          
O        O      0.163500000000     0.663350000000     0.463533333333     0          
O        O      0.053966666667     0.572000000000     0.668000000000     0          
O        O      0.101033333333     0.500000000000     0.705700000000     0          
O        O      0.125500000000     0.591100000000     0.702700000000     0          
O        O      0.088466666667     0.573750000000     0.745466666667     0          
O        O      0.112866666667     0.500000000000     0.796866666667     0          
O        O      0.130266666667     0.593500000000     0.820200000000     0          
O        O      0.061700000000     0.561600000000     0.798433333333     0          
O        O      0.006066666667     0.584250000000     0.731166666667     0          
O        O      0.004800000000     0.500000000000     0.767400000000     0          
O        O      0.330166666667     0.586650000000     0.796866666667     0          
O        O      0.000000000000     0.630450000000     0.666666666667     0          
O        O      0.279366666667     0.572000000000     0.998666666667     0          
O        O      0.232300000000     0.500000000000     0.960966666667     0          
O        O      0.207833333333     0.591100000000     0.963966666667     0          
O        O      0.244866666667     0.573750000000     0.921200000000     0          
O        O      0.220466666667     0.500000000000     0.869800000000     0          
O        O      0.203066666667     0.593500000000     0.846466666667     0          
O        O      0.271633333333     0.561600000000     0.868233333333     0          
O        O      0.327266666667     0.584250000000     0.935500000000     0          
O        O      0.328533333333     0.500000000000     0.899266666667     0          
O        O      0.003166666667     0.586650000000     0.869800000000     0          
O        O      0.279366666667     0.928000000000     0.998666666667     0          
O        O      0.207833333333     0.908900000000     0.963966666667     0          
O        O      0.244866666667     0.926250000000     0.921200000000     0          
O        O      0.203066666667     0.906500000000     0.846466666667     0          
O        O      0.271633333333     0.938400000000     0.868233333333     0          
O        O      0.327266666667     0.915750000000     0.935500000000     0          
O        O      0.003166666667     0.913350000000     0.869800000000     0          
O        O      0.000000000000     0.869550000000     0.666666666667     0          
O        O      0.053966666667     0.928000000000     0.668000000000     0          
O        O      0.125500000000     0.908900000000     0.702700000000     0          
O        O      0.088466666667     0.926250000000     0.745466666667     0          
O        O      0.130266666667     0.906500000000     0.820200000000     0          
O        O      0.061700000000     0.938400000000     0.798433333333     0          
O        O      0.006066666667     0.915750000000     0.731166666667     0          
O        O      0.330166666667     0.913350000000     0.796866666667     0          
O        O      0.220633333333     0.822000000000     0.668000000000     0          
O        O      0.267700000000     0.750000000000     0.705700000000     0          
O        O      0.292166666667     0.841100000000     0.702700000000     0          
O        O      0.255133333333     0.823750000000     0.745466666667     0          
O        O      0.279533333333     0.750000000000     0.796866666667     0          
O        O      0.296933333333     0.843500000000     0.820200000000     0          
O        O      0.228366666667     0.811600000000     0.798433333333     0          
O        O      0.172733333333     0.834250000000     0.731166666667     0          
O        O      0.171466666667     0.750000000000     0.767400000000     0          
O        O      0.163500000000     0.836650000000     0.796866666667     0          
O        O      0.166666666667     0.880450000000     0.666666666667     0          
O        O      0.112700000000     0.822000000000     0.998666666667     0          
O        O      0.065633333333     0.750000000000     0.960966666667     0          
O        O      0.041166666667     0.841100000000     0.963966666667     0          
O        O      0.078200000000     0.823750000000     0.921200000000     0          
O        O      0.053800000000     0.750000000000     0.869800000000     0          
O        O      0.036400000000     0.843500000000     0.846466666667     0          
O        O      0.104966666667     0.811600000000     0.868233333333     0          
O        O      0.160600000000     0.834250000000     0.935500000000     0          
O        O      0.161866666667     0.750000000000     0.899266666667     0          
O        O      0.169833333333     0.836650000000     0.869800000000     0          
O        O      0.112700000000     0.678000000000     0.998666666667     0          
O        O      0.041166666667     0.658900000000     0.963966666667     0          
O        O      0.078200000000     0.676250000000     0.921200000000     0          
O        O      0.036400000000     0.656500000000     0.846466666667     0          
O        O      0.104966666667     0.688400000000     0.868233333333     0          
O        O      0.160600000000     0.665750000000     0.935500000000     0          
O        O      0.169833333333     0.663350000000     0.869800000000     0          
O        O      0.166666666667     0.619550000000     0.666666666667     0          
O        O      0.220633333333     0.678000000000     0.668000000000     0          
O        O      0.292166666667     0.658900000000     0.702700000000     0          
O        O      0.255133333333     0.676250000000     0.745466666667     0          
O        O      0.296933333333     0.656500000000     0.820200000000     0          
O        O      0.228366666667     0.688400000000     0.798433333333     0          
O        O      0.172733333333     0.665750000000     0.731166666667     0          
O        O      0.163500000000     0.663350000000     0.796866666667     0          
O        O      0.387300000000     0.072000000000     0.001333333333     0          
O        O      0.434366666667     0.000000000000     0.039033333333     0          
O        O      0.458833333333     0.091100000000     0.036033333333     0          
O        O      0.421800000000     0.073750000000     0.078800000000     0          
O        O      0.446200000000     0.000000000000     0.130200000000     0          
O        O      0.463600000000     0.093500000000     0.153533333333     0          
O        O      0.395033333333     0.061600000000     0.131766666667     0          
O        O      0.339400000000     0.084250000000     0.064500000000     0          
O        O      0.338133333333     0.000000000000     0.100733333333     0          
O        O      0.663500000000     0.086650000000     0.130200000000     0          
O        O      0.333333333333     0.130450000000     0.000000000000     0          
O        O      0.612700000000     0.072000000000     0.332000000000     0          
O        O      0.565633333333     0.000000000000     0.294300000000     0          
O        O      0.541166666667     0.091100000000     0.297300000000     0          
O        O      0.578200000000     0.073750000000     0.254533333333     0          
O        O      0.553800000000     0.000000000000     0.203133333333     0          
O        O      0.536400000000     0.093500000000     0.179800000000     0          
O        O      0.604966666667     0.061600000000     0.201566666667     0          
O        O      0.660600000000     0.084250000000     0.268833333333     0          
O        O      0.661866666667     0.000000000000     0.232600000000     0          
O        O      0.336500000000     0.086650000000     0.203133333333     0          
O        O      0.612700000000     0.428000000000     0.332000000000     0          
O        O      0.541166666667     0.408900000000     0.297300000000     0          
O        O      0.578200000000     0.426250000000     0.254533333333     0          
O        O      0.536400000000     0.406500000000     0.179800000000     0          
O        O      0.604966666667     0.438400000000     0.201566666667     0          
O        O      0.660600000000     0.415750000000     0.268833333333     0          
O        O      0.336500000000     0.413350000000     0.203133333333     0          
O        O      0.333333333333     0.369550000000     0.000000000000     0          
O        O      0.387300000000     0.428000000000     0.001333333333     0          
O        O      0.458833333333     0.408900000000     0.036033333333     0          
O        O      0.421800000000     0.426250000000     0.078800000000     0          
O        O      0.463600000000     0.406500000000     0.153533333333     0          
O        O      0.395033333333     0.438400000000     0.131766666667     0          
O        O      0.339400000000     0.415750000000     0.064500000000     0          
O        O      0.663500000000     0.413350000000     0.130200000000     0          
O        O      0.553966666667     0.322000000000     0.001333333333     0          
O        O      0.601033333333     0.250000000000     0.039033333333     0          
O        O      0.625500000000     0.341100000000     0.036033333333     0          
O        O      0.588466666667     0.323750000000     0.078800000000     0          
O        O      0.612866666667     0.250000000000     0.130200000000     0          
O        O      0.630266666667     0.343500000000     0.153533333333     0          
O        O      0.561700000000     0.311600000000     0.131766666667     0          
O        O      0.506066666667     0.334250000000     0.064500000000     0          
O        O      0.504800000000     0.250000000000     0.100733333333     0          
O        O      0.496833333333     0.336650000000     0.130200000000     0          
O        O      0.500000000000     0.380450000000     0.000000000000     0          
O        O      0.446033333333     0.322000000000     0.332000000000     0          
O        O      0.398966666667     0.250000000000     0.294300000000     0          
O        O      0.374500000000     0.341100000000     0.297300000000     0          
O        O      0.411533333333     0.323750000000     0.254533333333     0          
O        O      0.387133333333     0.250000000000     0.203133333333     0          
O        O      0.369733333333     0.343500000000     0.179800000000     0          
O        O      0.438300000000     0.311600000000     0.201566666667     0          
O        O      0.493933333333     0.334250000000     0.268833333333     0          
O        O      0.495200000000     0.250000000000     0.232600000000     0          
O        O      0.503166666667     0.336650000000     0.203133333333     0          
O        O      0.446033333333     0.178000000000     0.332000000000     0          
O        O      0.374500000000     0.158900000000     0.297300000000     0          
O        O      0.411533333333     0.176250000000     0.254533333333     0          
O        O      0.369733333333     0.156500000000     0.179800000000     0          
O        O      0.438300000000     0.188400000000     0.201566666667     0          
O        O      0.493933333333     0.165750000000     0.268833333333     0          
O        O      0.503166666667     0.163350000000     0.203133333333     0          
O        O      0.500000000000     0.119550000000     0.000000000000     0          
O        O      0.553966666667     0.178000000000     0.001333333333     0          
O        O      0.625500000000     0.158900000000     0.036033333333     0          
O        O      0.588466666667     0.176250000000     0.078800000000     0          
O        O      0.630266666667     0.156500000000     0.153533333333     0          
O        O      0.561700000000     0.188400000000     0.131766666667     0          
O        O      0.506066666667     0.165750000000     0.064500000000     0          
O        O      0.496833333333     0.163350000000     0.130200000000     0          
O        O      0.387300000000     0.072000000000     0.334666666667     0          
O        O      0.434366666667     0.000000000000     0.372366666667     0          
O        O      0.458833333333     0.091100000000     0.369366666667     0          
O        O      0.421800000000     0.073750000000     0.412133333333     0          
O        O      0.446200000000     0.000000000000     0.463533333333     0          
O        O      0.463600000000     0.093500000000     0.486866666667     0          
O        O      0.395033333333     0.061600000000     0.465100000000     0          
O        O      0.339400000000     0.084250000000     0.397833333333     0          
O        O      0.338133333333     0.000000000000     0.434066666667     0          
O        O      0.663500000000     0.086650000000     0.463533333333     0          
O        O      0.333333333333     0.130450000000     0.333333333333     0          
O        O      0.612700000000     0.072000000000     0.665333333333     0          
O        O      0.565633333333     0.000000000000     0.627633333333     0          
O        O      0.541166666667     0.091100000000     0.630633333333     0          
O        O      0.578200000000     0.073750000000     0.587866666667     0          
O        O      0.553800000000     0.000000000000     0.536466666667     0          
O        O      0.536400000000     0.093500000000     0.513133333333     0          
O        O      0.604966666667     0.061600000000     0.534900000000     0          
O        O      0.660600000000     0.084250000000     0.602166666667     0          
O        O      0.661866666667     0.000000000000     0.565933333333     0          
O        O      0.336500000000     0.086650000000     0.536466666667     0          
O        O      0.612700000000     0.428000000000     0.665333333333     0          
O        O      0.541166666667     0.408900000000     0.630633333333     0          
O        O      0.578200000000     0.426250000000     0.587866666667     0          
O        O      0.536400000000     0.406500000000     0.513133333333     0          
O        O      0.604966666667     0.438400000000     0.534900000000     0          
O        O      0.660600000000     0.415750000000     0.602166666667     0          
O        O      0.336500000000     0.413350000000     0.536466666667     0          
O        O      0.333333333333     0.369550000000     0.333333333333     0          
O        O      0.387300000000     0.428000000000     0.334666666667     0          
O        O      0.458833333333     0.408900000000     0.369366666667     0          
O        O      0.421800000000     0.426250000000     0.412133333333     0          
O        O      0.463600000000     0.406500000000     0.486866666667     0          
O        O      0.395033333333     0.438400000000     0.465100000000     0          
O        O      0.339400000000     0.415750000000     0.397833333333     0          
O        O      0.663500000000     0.413350000000     0.463533333333     0          
O        O      0.553966666667     0.322000000000     0.334666666667     0          
O        O      0.601033333333     0.250000000000     0.372366666667     0          
O        O      0.625500000000     0.341100000000     0.369366666667     0          
O        O      0.588466666667     0.323750000000     0.412133333333     0          
O        O      0.612866666667     0.250000000000     0.463533333333     0          
O        O      0.630266666667     0.343500000000     0.486866666667     0          
O        O      0.561700000000     0.311600000000     0.465100000000     0          
O        O      0.506066666667     0.334250000000     0.397833333333     0          
O        O      0.504800000000     0.250000000000     0.434066666667     0          
O        O      0.496833333333     0.336650000000     0.463533333333     0          
O        O      0.500000000000     0.380450000000     0.333333333333     0          
O        O      0.446033333333     0.322000000000     0.665333333333     0          
O        O      0.398966666667     0.250000000000     0.627633333333     0          
O        O      0.374500000000     0.341100000000     0.630633333333     0          
O        O      0.411533333333     0.323750000000     0.587866666667     0          
O        O      0.387133333333     0.250000000000     0.536466666667     0          
O        O      0.369733333333     0.343500000000     0.513133333333     0          
O        O      0.438300000000     0.311600000000     0.534900000000     0          
O        O      0.493933333333     0.334250000000     0.602166666667     0          
O        O      0.495200000000     0.250000000000     0.565933333333     0          
O        O      0.503166666667     0.336650000000     0.536466666667     0          
O        O      0.446033333333     0.178000000000     0.665333333333     0          
O        O      0.374500000000     0.158900000000     0.630633333333     0          
O        O      0.411533333333     0.176250000000     0.587866666667     0          
O        O      0.369733333333     0.156500000000     0.513133333333     0          
O        O      0.438300000000     0.188400000000     0.534900000000     0          
O        O      0.493933333333     0.165750000000     0.602166666667     0          
O        O      0.503166666667     0.163350000000     0.536466666667     0          
O        O      0.500000000000     0.119550000000     0.333333333333     0          
O        O      0.553966666667     0.178000000000     0.334666666667     0          
O        O      0.625500000000     0.158900000000     0.369366666667     0          
O        O      0.588466666667     0.176250000000     0.412133333333     0          
O        O      0.630266666667     0.156500000000     0.486866666667     0          
O        O      0.561700000000     0.188400000000     0.465100000000     0          
O        O      0.506066666667     0.165750000000     0.397833333333     0          
O        O      0.496833333333     0.163350000000     0.463533333333     0          
O        O      0.387300000000     0.072000000000     0.668000000000     0          
O        O      0.434366666667     0.000000000000     0.705700000000     0          
O        O      0.458833333333     0.091100000000     0.702700000000     0          
O        O      0.421800000000     0.073750000000     0.745466666667     0          
O        O      0.446200000000     0.000000000000     0.796866666667     0          
O        O      0.463600000000     0.093500000000     0.820200000000     0          
O        O      0.395033333333     0.061600000000     0.798433333333     0          
O        O      0.339400000000     0.084250000000     0.731166666667     0          
O        O      0.338133333333     0.000000000000     0.767400000000     0          
O        O      0.663500000000     0.086650000000     0.796866666667     0          
O        O      0.333333333333     0.130450000000     0.666666666667     0          
O        O      0.612700000000     0.072000000000     0.998666666667     0          
O        O      0.565633333333     0.000000000000     0.960966666667     0          
O        O      0.541166666667     0.091100000000     0.963966666667     0          
O        O      0.578200000000     0.073750000000     0.921200000000     0          
O        O      0.553800000000     0.000000000000     0.869800000000     0          
O        O      0.536400000000     0.093500000000     0.846466666667     0          
O        O      0.604966666667     0.061600000000     0.868233333333     0          
O        O      0.660600000000     0.084250000000     0.935500000000     0          
O        O      0.661866666667     0.000000000000     0.899266666667     0          
O        O      0.336500000000     0.086650000000     0.869800000000     0          
O        O      0.612700000000     0.428000000000     0.998666666667     0          
O        O      0.541166666667     0.408900000000     0.963966666667     0          
O        O      0.578200000000     0.426250000000     0.921200000000     0          
O        O      0.536400000000     0.406500000000     0.846466666667     0          
O        O      0.604966666667     0.438400000000     0.868233333333     0          
O        O      0.660600000000     0.415750000000     0.935500000000     0          
O        O      0.336500000000     0.413350000000     0.869800000000     0          
O        O      0.333333333333     0.369550000000     0.666666666667     0          
O        O      0.387300000000     0.428000000000     0.668000000000     0          
O        O      0.458833333333     0.408900000000     0.702700000000     0          
O        O      0.421800000000     0.426250000000     0.745466666667     0          
O        O      0.463600000000     0.406500000000     0.820200000000     0          
O        O      0.395033333333     0.438400000000     0.798433333333     0          
O        O      0.339400000000     0.415750000000     0.731166666667     0          
O        O      0.663500000000     0.413350000000     0.796866666667     0          
O        O      0.553966666667     0.322000000000     0.668000000000     0          
O        O      0.601033333333     0.250000000000     0.705700000000     0          
O        O      0.625500000000     0.341100000000     0.702700000000     0          
O        O      0.588466666667     0.323750000000     0.745466666667     0          
O        O      0.612866666667     0.250000000000     0.796866666667     0          
O        O      0.630266666667     0.343500000000     0.820200000000     0          
O        O      0.561700000000     0.311600000000     0.798433333333     0          
O        O      0.506066666667     0.334250000000     0.731166666667     0          
O        O      0.504800000000     0.250000000000     0.767400000000     0          
O        O      0.496833333333     0.336650000000     0.796866666667     0          
O        O      0.500000000000     0.380450000000     0.666666666667     0          
O        O      0.446033333333     0.322000000000     0.998666666667     0          
O        O      0.398966666667     0.250000000000     0.960966666667     0          
O        O      0.374500000000     0.341100000000     0.963966666667     0          
O        O      0.411533333333     0.323750000000     0.921200000000     0          
O        O      0.387133333333     0.250000000000     0.869800000000     0          
O        O      0.369733333333     0.343500000000     0.846466666667     0          
O        O      0.438300000000     0.311600000000     0.868233333333     0          
O        O      0.493933333333     0.334250000000     0.935500000000     0          
O        O      0.495200000000     0.250000000000     0.899266666667     0          
O        O      0.503166666667     0.336650000000     0.869800000000     0          
O        O      0.446033333333     0.178000000000     0.998666666667     0          
O        O      0.374500000000     0.158900000000     0.963966666667     0          
O        O      0.411533333333     0.176250000000     0.921200000000     0          
O        O      0.369733333333     0.156500000000     0.846466666667     0          
O        O      0.438300000000     0.188400000000     0.868233333333     0          
O        O      0.493933333333     0.165750000000     0.935500000000     0          
O        O      0.503166666667     0.163350000000     0.869800000000     0          
O        O      0.500000000000     0.119550000000     0.666666666667     0          
O        O      0.553966666667     0.178000000000     0.668000000000     0          
O        O      0.625500000000     0.158900000000     0.702700000000     0          
O        O      0.588466666667     0.176250000000     0.745466666667     0          
O        O      0.630266666667     0.156500000000     0.820200000000     0          
O        O      0.561700000000     0.188400000000     0.798433333333     0          
O        O      0.506066666667     0.165750000000     0.731166666667     0          
O        O      0.496833333333     0.163350000000     0.796866666667     0          
O        O      0.387300000000     0.572000000000     0.001333333333     0          
O        O      0.434366666667     0.500000000000     0.039033333333     0          
O        O      0.458833333333     0.591100000000     0.036033333333     0          
O        O      0.421800000000     0.573750000000     0.078800000000     0          
O        O      0.446200000000     0.500000000000     0.130200000000     0          
O        O      0.463600000000     0.593500000000     0.153533333333     0          
O        O      0.395033333333     0.561600000000     0.131766666667     0          
O        O      0.339400000000     0.584250000000     0.064500000000     0          
O        O      0.338133333333     0.500000000000     0.100733333333     0          
O        O      0.663500000000     0.586650000000     0.130200000000     0          
O        O      0.333333333333     0.630450000000     0.000000000000     0          
O        O      0.612700000000     0.572000000000     0.332000000000     0          
O        O      0.565633333333     0.500000000000     0.294300000000     0          
O        O      0.541166666667     0.591100000000     0.297300000000     0          
O        O      0.578200000000     0.573750000000     0.254533333333     0          
O        O      0.553800000000     0.500000000000     0.203133333333     0          
O        O      0.536400000000     0.593500000000     0.179800000000     0          
O        O      0.604966666667     0.561600000000     0.201566666667     0          
O        O      0.660600000000     0.584250000000     0.268833333333     0          
O        O      0.661866666667     0.500000000000     0.232600000000     0          
O        O      0.336500000000     0.586650000000     0.203133333333     0          
O        O      0.612700000000     0.928000000000     0.332000000000     0          
O        O      0.541166666667     0.908900000000     0.297300000000     0          
O        O      0.578200000000     0.926250000000     0.254533333333     0          
O        O      0.536400000000     0.906500000000     0.179800000000     0          
O        O      0.604966666667     0.938400000000     0.201566666667     0          
O        O      0.660600000000     0.915750000000     0.268833333333     0          
O        O      0.336500000000     0.913350000000     0.203133333333     0          
O        O      0.333333333333     0.869550000000     0.000000000000     0          
O        O      0.387300000000     0.928000000000     0.001333333333     0          
O        O      0.458833333333     0.908900000000     0.036033333333     0          
O        O      0.421800000000     0.926250000000     0.078800000000     0          
O        O      0.463600000000     0.906500000000     0.153533333333     0          
O        O      0.395033333333     0.938400000000     0.131766666667     0          
O        O      0.339400000000     0.915750000000     0.064500000000     0          
O        O      0.663500000000     0.913350000000     0.130200000000     0          
O        O      0.553966666667     0.822000000000     0.001333333333     0          
O        O      0.601033333333     0.750000000000     0.039033333333     0          
O        O      0.625500000000     0.841100000000     0.036033333333     0          
O        O      0.588466666667     0.823750000000     0.078800000000     0          
O        O      0.612866666667     0.750000000000     0.130200000000     0          
O        O      0.630266666667     0.843500000000     0.153533333333     0          
O        O      0.561700000000     0.811600000000     0.131766666667     0          
O        O      0.506066666667     0.834250000000     0.064500000000     0          
O        O      0.504800000000     0.750000000000     0.100733333333     0          
O        O      0.496833333333     0.836650000000     0.130200000000     0          
O        O      0.500000000000     0.880450000000     0.000000000000     0          
O        O      0.446033333333     0.822000000000     0.332000000000     0          
O        O      0.398966666667     0.750000000000     0.294300000000     0          
O        O      0.374500000000     0.841100000000     0.297300000000     0          
O        O      0.411533333333     0.823750000000     0.254533333333     0          
O        O      0.387133333333     0.750000000000     0.203133333333     0          
O        O      0.369733333333     0.843500000000     0.179800000000     0          
O        O      0.438300000000     0.811600000000     0.201566666667     0          
O        O      0.493933333333     0.834250000000     0.268833333333     0          
O        O      0.495200000000     0.750000000000     0.232600000000     0          
O        O      0.503166666667     0.836650000000     0.203133333333     0          
O        O      0.446033333333     0.678000000000     0.332000000000     0          
O        O      0.374500000000     0.658900000000     0.297300000000     0          
O        O      0.411533333333     0.676250000000     0.254533333333     0          
O        O      0.369733333333     0.656500000000     0.179800000000     0          
O        O      0.438300000000     0.688400000000     0.201566666667     0          
O        O      0.493933333333     0.665750000000     0.268833333333     0          
O        O      0.503166666667     0.663350000000     0.203133333333     0          
O        O      0.500000000000     0.619550000000     0.000000000000     0          
O        O      0.553966666667     0.678000000000     0.001333333333     0          
O        O      0.625500000000     0.658900000000     0.036033333333     0          
O        O      0.588466666667     0.676250000000     0.078800000000     0          
O        O      0.630266666667     0.656500000000     0.153533333333     0          
O        O      0.561700000000     0.688400000000     0.131766666667     0          
O        O      0.506066666667     0.665750000000     0.064500000000     0          
O        O      0.496833333333     0.663350000000     0.130200000000     0          
O        O      0.387300000000     0.572000000000     0.334666666667     0          
O        O      0.434366666667     0.500000000000     0.372366666667     0          
O        O      0.458833333333     0.591100000000     0.369366666667     0          
O        O      0.421800000000     0.573750000000     0.412133333333     0          
O        O      0.446200000000     0.500000000000     0.463533333333     0          
O        O      0.463600000000     0.593500000000     0.486866666667     0          
O        O      0.395033333333     0.561600000000     0.465100000000     0          
O        O      0.339400000000     0.584250000000     0.397833333333     0          
O        O      0.338133333333     0.500000000000     0.434066666667     0          
O        O      0.663500000000     0.586650000000     0.463533333333     0          
O        O      0.333333333333     0.630450000000     0.333333333333     0          
O        O      0.612700000000     0.572000000000     0.665333333333     0          
O        O      0.565633333333     0.500000000000     0.627633333333     0          
O        O      0.541166666667     0.591100000000     0.630633333333     0          
O        O      0.578200000000     0.573750000000     0.587866666667     0          
O        O      0.553800000000     0.500000000000     0.536466666667     0          
O        O      0.536400000000     0.593500000000     0.513133333333     0          
O        O      0.604966666667     0.561600000000     0.534900000000     0          
O        O      0.660600000000     0.584250000000     0.602166666667     0          
O        O      0.661866666667     0.500000000000     0.565933333333     0          
O        O      0.336500000000     0.586650000000     0.536466666667     0          
O        O      0.612700000000     0.928000000000     0.665333333333     0          
O        O      0.541166666667     0.908900000000     0.630633333333     0          
O        O      0.578200000000     0.926250000000     0.587866666667     0          
O        O      0.536400000000     0.906500000000     0.513133333333     0          
O        O      0.604966666667     0.938400000000     0.534900000000     0          
O        O      0.660600000000     0.915750000000     0.602166666667     0          
O        O      0.336500000000     0.913350000000     0.536466666667     0          
O        O      0.333333333333     0.869550000000     0.333333333333     0          
O        O      0.387300000000     0.928000000000     0.334666666667     0          
O        O      0.458833333333     0.908900000000     0.369366666667     0          
O        O      0.421800000000     0.926250000000     0.412133333333     0          
O        O      0.463600000000     0.906500000000     0.486866666667     0          
O        O      0.395033333333     0.938400000000     0.465100000000     0          
O        O      0.339400000000     0.915750000000     0.397833333333     0          
O        O      0.663500000000     0.913350000000     0.463533333333     0          
O        O      0.553966666667     0.822000000000     0.334666666667     0          
O        O      0.601033333333     0.750000000000     0.372366666667     0          
O        O      0.625500000000     0.841100000000     0.369366666667     0          
O        O      0.588466666667     0.823750000000     0.412133333333     0          
O        O      0.612866666667     0.750000000000     0.463533333333     0          
O        O      0.630266666667     0.843500000000     0.486866666667     0          
O        O      0.561700000000     0.811600000000     0.465100000000     0          
O        O      0.506066666667     0.834250000000     0.397833333333     0          
O        O      0.504800000000     0.750000000000     0.434066666667     0          
O        O      0.496833333333     0.836650000000     0.463533333333     0          
O        O      0.500000000000     0.880450000000     0.333333333333     0          
O        O      0.446033333333     0.822000000000     0.665333333333     0          
O        O      0.398966666667     0.750000000000     0.627633333333     0          
O        O      0.374500000000     0.841100000000     0.630633333333     0          
O        O      0.411533333333     0.823750000000     0.587866666667     0          
O        O      0.387133333333     0.750000000000     0.536466666667     0          
O        O      0.369733333333     0.843500000000     0.513133333333     0          
O        O      0.438300000000     0.811600000000     0.534900000000     0          
O        O      0.493933333333     0.834250000000     0.602166666667     0          
O        O      0.495200000000     0.750000000000     0.565933333333     0          
O        O      0.503166666667     0.836650000000     0.536466666667     0          
O        O      0.446033333333     0.678000000000     0.665333333333     0          
O        O      0.374500000000     0.658900000000     0.630633333333     0          
O        O      0.411533333333     0.676250000000     0.587866666667     0          
O        O      0.369733333333     0.656500000000     0.513133333333     0          
O        O      0.438300000000     0.688400000000     0.534900000000     0          
O        O      0.493933333333     0.665750000000     0.602166666667     0          
O        O      0.503166666667     0.663350000000     0.536466666667     0          
O        O      0.500000000000     0.619550000000     0.333333333333     0          
O        O      0.553966666667     0.678000000000     0.334666666667     0          
O        O      0.625500000000     0.658900000000     0.369366666667     0          
O        O      0.588466666667     0.676250000000     0.412133333333     0          
O        O      0.630266666667     0.656500000000     0.486866666667     0          
O        O      0.561700000000     0.688400000000     0.465100000000     0          
O        O      0.506066666667     0.665750000000     0.397833333333     0          
O        O      0.496833333333     0.663350000000     0.463533333333     0          
O        O      0.387300000000     0.572000000000     0.668000000000     0          
O        O      0.434366666667     0.500000000000     0.705700000000     0          
O        O      0.458833333333     0.591100000000     0.702700000000     0          
O        O      0.421800000000     0.573750000000     0.745466666667     0          
O        O      0.446200000000     0.500000000000     0.796866666667     0          
O        O      0.463600000000     0.593500000000     0.820200000000     0          
O        O      0.395033333333     0.561600000000     0.798433333333     0          
O        O      0.339400000000     0.584250000000     0.731166666667     0          
O        O      0.338133333333     0.500000000000     0.767400000000     0          
O        O      0.663500000000     0.586650000000     0.796866666667     0          
O        O      0.333333333333     0.630450000000     0.666666666667     0          
O        O      0.612700000000     0.572000000000     0.998666666667     0          
O        O      0.565633333333     0.500000000000     0.960966666667     0          
O        O      0.541166666667     0.591100000000     0.963966666667     0          
O        O      0.578200000000     0.573750000000     0.921200000000     0          
O        O      0.553800000000     0.500000000000     0.869800000000     0          
O        O      0.536400000000     0.593500000000     0.846466666667     0          
O        O      0.604966666667     0.561600000000     0.868233333333     0          
O        O      0.660600000000     0.584250000000     0.935500000000     0          
O        O      0.661866666667     0.500000000000     0.899266666667     0          
O        O      0.336500000000     0.586650000000     0.869800000000     0          
O        O      0.612700000000     0.928000000000     0.998666666667     0          
O        O      0.541166666667     0.908900000000     0.963966666667     0          
O        O      0.578200000000     0.926250000000     0.921200000000     0          
O        O      0.536400000000     0.906500000000     0.846466666667     0          
O        O      0.604966666667     0.938400000000     0.868233333333     0          
O        O      0.660600000000     0.915750000000     0.935500000000     0          
O        O      0.336500000000     0.913350000000     0.869800000000     0          
O        O      0.333333333333     0.869550000000     0.666666666667     0          
O        O      0.387300000000     0.928000000000     0.668000000000     0          
O        O      0.458833333333     0.908900000000     0.702700000000     0          
O        O      0.421800000000     0.926250000000     0.745466666667     0          
O        O      0.463600000000     0.906500000000     0.820200000000     0          
O        O      0.395033333333     0.938400000000     0.798433333333     0          
O        O      0.339400000000     0.915750000000     0.731166666667     0          
O        O      0.663500000000     0.913350000000     0.796866666667     0          
O        O      0.553966666667     0.822000000000     0.668000000000     0          
O        O      0.601033333333     0.750000000000     0.705700000000     0          
O        O      0.625500000000     0.841100000000     0.702700000000     0          
O        O      0.588466666667     0.823750000000     0.745466666667     0          
O        O      0.612866666667     0.750000000000     0.796866666667     0          
O        O      0.630266666667     0.843500000000     0.820200000000     0          
O        O      0.561700000000     0.811600000000     0.798433333333     0          
O        O      0.506066666667     0.834250000000     0.731166666667     0          
O        O      0.504800000000     0.750000000000     0.767400000000     0          
O        O      0.496833333333     0.836650000000     0.796866666667     0          
O        O      0.500000000000     0.880450000000     0.666666666667     0          
O        O      0.446033333333     0.822000000000     0.998666666667     0          
O        O      0.398966666667     0.750000000000     0.960966666667     0          
O        O      0.374500000000     0.841100000000     0.963966666667     0          
O        O      0.411533333333     0.823750000000     0.921200000000     0          
O        O      0.387133333333     0.750000000000     0.869800000000     0          
O        O      0.369733333333     0.843500000000     0.846466666667     0          
O        O      0.438300000000     0.811600000000     0.868233333333     0          
O        O      0.493933333333     0.834250000000     0.935500000000     0          
O        O      0.495200000000     0.750000000000     0.899266666667     0          
O        O      0.503166666667     0.836650000000     0.869800000000     0          
O        O      0.446033333333     0.678000000000     0.998666666667     0          
O        O      0.374500000000     0.658900000000     0.963966666667     0          
O        O      0.411533333333     0.676250000000     0.921200000000     0          
O        O      0.369733333333     0.656500000000     0.846466666667     0          
O        O      0.438300000000     0.688400000000     0.868233333333     0          
O        O      0.493933333333     0.665750000000     0.935500000000     0          
O        O      0.503166666667     0.663350000000     0.869800000000     0          
O        O      0.500000000000     0.619550000000     0.666666666667     0          
O        O      0.553966666667     0.678000000000     0.668000000000     0          
O        O      0.625500000000     0.658900000000     0.702700000000     0          
O        O      0.588466666667     0.676250000000     0.745466666667     0          
O        O      0.630266666667     0.656500000000     0.820200000000     0          
O        O      0.561700000000     0.688400000000     0.798433333333     0          
O        O      0.506066666667     0.665750000000     0.731166666667     0          
O        O      0.496833333333     0.663350000000     0.796866666667     0          
O        O      0.720633333333     0.072000000000     0.001333333333     0          
O        O      0.767700000000     0.000000000000     0.039033333333     0          
O        O      0.792166666667     0.091100000000     0.036033333333     0          
O        O      0.755133333333     0.073750000000     0.078800000000     0          
O        O      0.779533333333     0.000000000000     0.130200000000     0          
O        O      0.796933333333     0.093500000000     0.153533333333     0          
O        O      0.728366666667     0.061600000000     0.131766666667     0          
O        O      0.672733333333     0.084250000000     0.064500000000     0          
O        O      0.671466666667     0.000000000000     0.100733333333     0          
O        O      0.996833333333     0.086650000000     0.130200000000     0          
O        O      0.666666666667     0.130450000000     0.000000000000     0          
O        O      0.946033333333     0.072000000000     0.332000000000     0          
O        O      0.898966666667     0.000000000000     0.294300000000     0          
O        O      0.874500000000     0.091100000000     0.297300000000     0          
O        O      0.911533333333     0.073750000000     0.254533333333     0          
O        O      0.887133333333     0.000000000000     0.203133333333     0          
O        O      0.869733333333     0.093500000000     0.179800000000     0          
O        O      0.938300000000     0.061600000000     0.201566666667     0          
O        O      0.993933333333     0.084250000000     0.268833333333     0          
O        O      0.995200000000     0.000000000000     0.232600000000     0          
O        O      0.669833333333     0.086650000000     0.203133333333     0          
O        O      0.946033333333     0.428000000000     0.332000000000     0          
O        O      0.874500000000     0.408900000000     0.297300000000     0          
O        O      0.911533333333     0.426250000000     0.254533333333     0          
O        O      0.869733333333     0.406500000000     0.179800000000     0          
O        O      0.938300000000     0.438400000000     0.201566666667     0          
O        O      0.993933333333     0.415750000000     0.268833333333     0          
O        O      0.669833333333     0.413350000000     0.203133333333     0          
O        O      0.666666666667     0.369550000000     0.000000000000     0          
O        O      0.720633333333     0.428000000000     0.001333333333     0          
O        O      0.792166666667     0.408900000000     0.036033333333     0          
O        O      0.755133333333     0.426250000000     0.078800000000     0          
O        O      0.796933333333     0.406500000000     0.153533333333     0          
O        O      0.728366666667     0.438400000000     0.131766666667     0          
O        O      0.672733333333     0.415750000000     0.064500000000     0          
O        O      0.996833333333     0.413350000000     0.130200000000     0          
O        O      0.887300000000     0.322000000000     0.001333333333     0          
O        O      0.934366666667     0.250000000000     0.039033333333     0          
O        O      0.958833333333     0.341100000000     0.036033333333     0          
O        O      0.921800000000     0.323750000000     0.078800000000     0          
O        O      0.946200000000     0.250000000000     0.130200000000     0          
O        O      0.963600000000     0.343500000000     0.153533333333     0          
O        O      0.895033333333     0.311600000000     0.131766666667     0          
O        O      0.839400000000     0.334250000000     0.064500000000     0          
O        O      0.838133333333     0.250000000000     0.100733333333     0          
O        O      0.830166666667     0.336650000000     0.130200000000     0          
O        O      0.833333333333     0.380450000000     0.000000000000     0          
O        O      0.779366666667     0.322000000000     0.332000000000     0          
O        O      0.732300000000     0.250000000000     0.294300000000     0          
O        O      0.707833333333     0.341100000000     0.297300000000     0          
O        O      0.744866666667     0.323750000000     0.254533333333     0          
O        O      0.720466666667     0.250000000000     0.203133333333     0          
O        O      0.703066666667     0.343500000000     0.179800000000     0          
O        O      0.771633333333     0.311600000000     0.201566666667     0          
O        O      0.827266666667     0.334250000000     0.268833333333     0          
O        O      0.828533333333     0.250000000000     0.232600000000     0          
O        O      0.836500000000     0.336650000000     0.203133333333     0          
O        O      0.779366666667     0.178000000000     0.332000000000     0          
O        O      0.707833333333     0.158900000000     0.297300000000     0          
O        O      0.744866666667     0.176250000000     0.254533333333     0          
O        O      0.703066666667     0.156500000000     0.179800000000     0          
O        O      0.771633333333     0.188400000000     0.201566666667     0          
O        O      0.827266666667     0.165750000000     0.268833333333     0          
O        O      0.836500000000     0.163350000000     0.203133333333     0          
O        O      0.833333333333     0.119550000000     0.000000000000     0          
O        O      0.887300000000     0.178000000000     0.001333333333     0          
O        O      0.958833333333     0.158900000000     0.036033333333     0          
O        O      0.921800000000     0.176250000000     0.078800000000     0          
O        O      0.963600000000     0.156500000000     0.153533333333     0          
O        O      0.895033333333     0.188400000000     0.131766666667     0          
O        O      0.839400000000     0.165750000000     0.064500000000     0          
O        O      0.830166666667     0.163350000000     0.130200000000     0          
O        O      0.720633333333     0.072000000000     0.334666666667     0          
O        O      0.767700000000     0.000000000000     0.372366666667     0          
O        O      0.792166666667     0.091100000000     0.369366666667     0          
O        O      0.755133333333     0.073750000000     0.412133333333     0          
O        O      0.779533333333     0.000000000000     0.463533333333     0          
O        O      0.796933333333     0.093500000000     0.486866666667     0          
O        O      0.728366666667     0.061600000000     0.465100000000     0          
O        O      0.672733333333     0.084250000000     0.397833333333     0          
O        O      0.671466666667     0.000000000000     0.434066666667     0          
O        O      0.996833333333     0.086650000000     0.463533333333     0          
O        O      0.666666666667     0.130450000000     0.333333333333     0          
O        O      0.946033333333     0.072000000000     0.665333333333     0          
O        O      0.898966666667     0.000000000000     0.627633333333     0          
O        O      0.874500000000     0.091100000000     0.630633333333     0          
O        O      0.911533333333     0.073750000000     0.587866666667     0          
O        O      0.887133333333     0.000000000000     0.536466666667     0          
O        O      0.869733333333     0.093500000000     0.513133333333     0          
O        O      0.938300000000     0.061600000000     0.534900000000     0          
O        O      0.993933333333     0.084250000000     0.602166666667     0          
O        O      0.995200000000     0.000000000000     0.565933333333     0          
O        O      0.669833333333     0.086650000000     0.536466666667     0          
O        O      0.946033333333     0.428000000000     0.665333333333     0          
O        O      0.874500000000     0.408900000000     0.630633333333     0          
O        O      0.911533333333     0.426250000000     0.587866666667     0          
O        O      0.869733333333     0.406500000000     0.513133333333     0          
O        O      0.938300000000     0.438400000000     0.534900000000     0          
O        O      0.993933333333     0.415750000000     0.602166666667     0          
O        O      0.669833333333     0.413350000000     0.536466666667     0          
O        O      0.666666666667     0.369550000000     0.333333333333     0          
O        O      0.720633333333     0.428000000000     0.334666666667     0          
O        O      0.792166666667     0.408900000000     0.369366666667     0          
O        O      0.755133333333     0.426250000000     0.412133333333     0          
O        O      0.796933333333     0.406500000000     0.486866666667     0          
O        O      0.728366666667     0.438400000000     0.465100000000     0          
O        O      0.672733333333     0.415750000000     0.397833333333     0          
O        O      0.996833333333     0.413350000000     0.463533333333     0          
O        O      0.887300000000     0.322000000000     0.334666666667     0          
O        O      0.934366666667     0.250000000000     0.372366666667     0          
O        O      0.958833333333     0.341100000000     0.369366666667     0          
O        O      0.921800000000     0.323750000000     0.412133333333     0          
O        O      0.946200000000     0.250000000000     0.463533333333     0          
O        O      0.963600000000     0.343500000000     0.486866666667     0          
O        O      0.895033333333     0.311600000000     0.465100000000     0          
O        O      0.839400000000     0.334250000000     0.397833333333     0          
O        O      0.838133333333     0.250000000000     0.434066666667     0          
O        O      0.830166666667     0.336650000000     0.463533333333     0          
O        O      0.833333333333     0.380450000000     0.333333333333     0          
O        O      0.779366666667     0.322000000000     0.665333333333     0          
O        O      0.732300000000     0.250000000000     0.627633333333     0          
O        O      0.707833333333     0.341100000000     0.630633333333     0          
O        O      0.744866666667     0.323750000000     0.587866666667     0          
O        O      0.720466666667     0.250000000000     0.536466666667     0          
O        O      0.703066666667     0.343500000000     0.513133333333     0          
O        O      0.771633333333     0.311600000000     0.534900000000     0          
O        O      0.827266666667     0.334250000000     0.602166666667     0          
O        O      0.828533333333     0.250000000000     0.565933333333     0          
O        O      0.836500000000     0.336650000000     0.536466666667     0          
O        O      0.779366666667     0.178000000000     0.665333333333     0          
O        O      0.707833333333     0.158900000000     0.630633333333     0          
O        O      0.744866666667     0.176250000000     0.587866666667     0          
O        O      0.703066666667     0.156500000000     0.513133333333     0          
O        O      0.771633333333     0.188400000000     0.534900000000     0          
O        O      0.827266666667     0.165750000000     0.602166666667     0          
O        O      0.836500000000     0.163350000000     0.536466666667     0          
O        O      0.833333333333     0.119550000000     0.333333333333     0          
O        O      0.887300000000     0.178000000000     0.334666666667     0          
O        O      0.958833333333     0.158900000000     0.369366666667     0          
O        O      0.921800000000     0.176250000000     0.412133333333     0          
O        O      0.963600000000     0.156500000000     0.486866666667     0          
O        O      0.895033333333     0.188400000000     0.465100000000     0          
O        O      0.839400000000     0.165750000000     0.397833333333     0          
O        O      0.830166666667     0.163350000000     0.463533333333     0          
O        O      0.720633333333     0.072000000000     0.668000000000     0          
O        O      0.767700000000     0.000000000000     0.705700000000     0          
O        O      0.792166666667     0.091100000000     0.702700000000     0          
O        O      0.755133333333     0.073750000000     0.745466666667     0          
O        O      0.779533333333     0.000000000000     0.796866666667     0          
O        O      0.796933333333     0.093500000000     0.820200000000     0          
O        O      0.728366666667     0.061600000000     0.798433333333     0          
O        O      0.672733333333     0.084250000000     0.731166666667     0          
O        O      0.671466666667     0.000000000000     0.767400000000     0          
O        O      0.996833333333     0.086650000000     0.796866666667     0          
O        O      0.666666666667     0.130450000000     0.666666666667     0          
O        O      0.946033333333     0.072000000000     0.998666666667     0          
O        O      0.898966666667     0.000000000000     0.960966666667     0          
O        O      0.874500000000     0.091100000000     0.963966666667     0          
O        O      0.911533333333     0.073750000000     0.921200000000     0          
O        O      0.887133333333     0.000000000000     0.869800000000     0          
O        O      0.869733333333     0.093500000000     0.846466666667     0          
O        O      0.938300000000     0.061600000000     0.868233333333     0          
O        O      0.993933333333     0.084250000000     0.935500000000     0          
O        O      0.995200000000     0.000000000000     0.899266666667     0          
O        O      0.669833333333     0.086650000000     0.869800000000     0          
O        O      0.946033333333     0.428000000000     0.998666666667     0          
O        O      0.874500000000     0.408900000000     0.963966666667     0          
O        O      0.911533333333     0.426250000000     0.921200000000     0          
O        O      0.869733333333     0.406500000000     0.846466666667     0          
O        O      0.938300000000     0.438400000000     0.868233333333     0          
O        O      0.993933333333     0.415750000000     0.935500000000     0          
O        O      0.669833333333     0.413350000000     0.869800000000     0          
O        O      0.666666666667     0.369550000000     0.666666666667     0          
O        O      0.720633333333     0.428000000000     0.668000000000     0          
O        O      0.792166666667     0.408900000000     0.702700000000     0          
O        O      0.755133333333     0.426250000000     0.745466666667     0          
O        O      0.796933333333     0.406500000000     0.820200000000     0          
O        O      0.728366666667     0.438400000000     0.798433333333     0          
O        O      0.672733333333     0.415750000000     0.731166666667     0          
O        O      0.996833333333     0.413350000000     0.796866666667     0          
O        O      0.887300000000     0.322000000000     0.668000000000     0          
O        O      0.934366666667     0.250000000000     0.705700000000     0          
O        O      0.958833333333     0.341100000000     0.702700000000     0          
O        O      0.921800000000     0.323750000000     0.745466666667     0          
O        O      0.946200000000     0.250000000000     0.796866666667     0          
O        O      0.963600000000     0.343500000000     0.820200000000     0          
O        O      0.895033333333     0.311600000000     0.798433333333     0          
O        O      0.839400000000     0.334250000000     0.731166666667     0          
O        O      0.838133333333     0.250000000000     0.767400000000     0          
O        O      0.830166666667     0.336650000000     0.796866666667     0          
O        O      0.833333333333     0.380450000000     0.666666666667     0          
O        O      0.779366666667     0.322000000000     0.998666666667     0          
O        O      0.732300000000     0.250000000000     0.960966666667     0          
O        O      0.707833333333     0.341100000000     0.963966666667     0          
O        O      0.744866666667     0.323750000000     0.921200000000     0          
O        O      0.720466666667     0.250000000000     0.869800000000     0          
O        O      0.703066666667     0.343500000000     0.846466666667     0          
O        O      0.771633333333     0.311600000000     0.868233333333     0          
O        O      0.827266666667     0.334250000000     0.935500000000     0          
O        O      0.828533333333     0.250000000000     0.899266666667     0          
O        O      0.836500000000     0.336650000000     0.869800000000     0          
O        O      0.779366666667     0.178000000000     0.998666666667     0          
O        O      0.707833333333     0.158900000000     0.963966666667     0          
O        O      0.744866666667     0.176250000000     0.921200000000     0          
O        O      0.703066666667     0.156500000000     0.846466666667     0          
O        O      0.771633333333     0.188400000000     0.868233333333     0          
O        O      0.827266666667     0.165750000000     0.935500000000     0          
O        O      0.836500000000     0.163350000000     0.869800000000     0          
O        O      0.833333333333     0.119550000000     0.666666666667     0          
O        O      0.887300000000     0.178000000000     0.668000000000     0          
O        O      0.958833333333     0.158900000000     0.702700000000     0          
O        O      0.921800000000     0.176250000000     0.745466666667     0          
O        O      0.963600000000     0.156500000000     0.820200000000     0          
O        O      0.895033333333     0.188400000000     0.798433333333     0          
O        O      0.839400000000     0.165750000000     0.731166666667     0          
O        O      0.830166666667     0.163350000000     0.796866666667     0          
O        O      0.720633333333     0.572000000000     0.001333333333     0          
O        O      0.767700000000     0.500000000000     0.039033333333     0          
O        O      0.792166666667     0.591100000000     0.036033333333     0          
O        O      0.755133333333     0.573750000000     0.078800000000     0          
O        O      0.779533333333     0.500000000000     0.130200000000     0          
O        O      0.796933333333     0.593500000000     0.153533333333     0          
O        O      0.728366666667     0.561600000000     0.131766666667     0          
O        O      0.672733333333     0.584250000000     0.064500000000     0          
O        O      0.671466666667     0.500000000000     0.100733333333     0          
O        O      0.996833333333     0.586650000000     0.130200000000     0          
O        O      0.666666666667     0.630450000000     0.000000000000     0          
O        O      0.946033333333     0.572000000000     0.332000000000     0          
O        O      0.898966666667     0.500000000000     0.294300000000     0          
O        O      0.874500000000     0.591100000000     0.297300000000     0          
O        O      0.911533333333     0.573750000000     0.254533333333     0          
O        O      0.887133333333     0.500000000000     0.203133333333     0          
O        O      0.869733333333     0.593500000000     0.179800000000     0          
O        O      0.938300000000     0.561600000000     0.201566666667     0          
O        O      0.993933333333     0.584250000000     0.268833333333     0          
O        O      0.995200000000     0.500000000000     0.232600000000     0          
O        O      0.669833333333     0.586650000000     0.203133333333     0          
O        O      0.946033333333     0.928000000000     0.332000000000     0          
O        O      0.874500000000     0.908900000000     0.297300000000     0          
O        O      0.911533333333     0.926250000000     0.254533333333     0          
O        O      0.869733333333     0.906500000000     0.179800000000     0          
O        O      0.938300000000     0.938400000000     0.201566666667     0          
O        O      0.993933333333     0.915750000000     0.268833333333     0          
O        O      0.669833333333     0.913350000000     0.203133333333     0          
O        O      0.666666666667     0.869550000000     0.000000000000     0          
O        O      0.720633333333     0.928000000000     0.001333333333     0          
O        O      0.792166666667     0.908900000000     0.036033333333     0          
O        O      0.755133333333     0.926250000000     0.078800000000     0          
O        O      0.796933333333     0.906500000000     0.153533333333     0          
O        O      0.728366666667     0.938400000000     0.131766666667     0          
O        O      0.672733333333     0.915750000000     0.064500000000     0          
O        O      0.996833333333     0.913350000000     0.130200000000     0          
O        O      0.887300000000     0.822000000000     0.001333333333     0          
O        O      0.934366666667     0.750000000000     0.039033333333     0          
O        O      0.958833333333     0.841100000000     0.036033333333     0          
O        O      0.921800000000     0.823750000000     0.078800000000     0          
O        O      0.946200000000     0.750000000000     0.130200000000     0          
O        O      0.963600000000     0.843500000000     0.153533333333     0          
O        O      0.895033333333     0.811600000000     0.131766666667     0          
O        O      0.839400000000     0.834250000000     0.064500000000     0          
O        O      0.838133333333     0.750000000000     0.100733333333     0          
O        O      0.830166666667     0.836650000000     0.130200000000     0          
O        O      0.833333333333     0.880450000000     0.000000000000     0          
O        O      0.779366666667     0.822000000000     0.332000000000     0          
O        O      0.732300000000     0.750000000000     0.294300000000     0          
O        O      0.707833333333     0.841100000000     0.297300000000     0          
O        O      0.744866666667     0.823750000000     0.254533333333     0          
O        O      0.720466666667     0.750000000000     0.203133333333     0          
O        O      0.703066666667     0.843500000000     0.179800000000     0          
O        O      0.771633333333     0.811600000000     0.201566666667     0          
O        O      0.827266666667     0.834250000000     0.268833333333     0          
O        O      0.828533333333     0.750000000000     0.232600000000     0          
O        O      0.836500000000     0.836650000000     0.203133333333     0          
O        O      0.779366666667     0.678000000000     0.332000000000     0          
O        O      0.707833333333     0.658900000000     0.297300000000     0          
O        O      0.744866666667     0.676250000000     0.254533333333     0          
O        O      0.703066666667     0.656500000000     0.179800000000     0          
O        O      0.771633333333     0.688400000000     0.201566666667     0          
O        O      0.827266666667     0.665750000000     0.268833333333     0          
O        O      0.836500000000     0.663350000000     0.203133333333     0          
O        O      0.833333333333     0.619550000000     0.000000000000     0          
O        O      0.887300000000     0.678000000000     0.001333333333     0          
O        O      0.958833333333     0.658900000000     0.036033333333     0          
O        O      0.921800000000     0.676250000000     0.078800000000     0          
O        O      0.963600000000     0.656500000000     0.153533333333     0          
O        O      0.895033333333     0.688400000000     0.131766666667     0          
O        O      0.839400000000     0.665750000000     0.064500000000     0          
O        O      0.830166666667     0.663350000000     0.130200000000     0          
O        O      0.720633333333     0.572000000000     0.334666666667     0          
O        O      0.767700000000     0.500000000000     0.372366666667     0          
O        O      0.792166666667     0.591100000000     0.369366666667     0          
O        O      0.755133333333     0.573750000000     0.412133333333     0          
O        O      0.779533333333     0.500000000000     0.463533333333     0          
O        O      0.796933333333     0.593500000000     0.486866666667     0          
O        O      0.728366666667     0.561600000000     0.465100000000     0          
O        O      0.672733333333     0.584250000000     0.397833333333     0          
O        O      0.671466666667     0.500000000000     0.434066666667     0          
O        O      0.996833333333     0.586650000000     0.463533333333     0          
O        O      0.666666666667     0.630450000000     0.333333333333     0          
O        O      0.946033333333     0.572000000000     0.665333333333     0          
O        O      0.898966666667     0.500000000000     0.627633333333     0          
O        O      0.874500000000     0.591100000000     0.630633333333     0          
O        O      0.911533333333     0.573750000000     0.587866666667     0          
O        O      0.887133333333     0.500000000000     0.536466666667     0          
O        O      0.869733333333     0.593500000000     0.513133333333     0          
O        O      0.938300000000     0.561600000000     0.534900000000     0          
O        O      0.993933333333     0.584250000000     0.602166666667     0          
O        O      0.995200000000     0.500000000000     0.565933333333     0          
O        O      0.669833333333     0.586650000000     0.536466666667     0          
O        O      0.946033333333     0.928000000000     0.665333333333     0          
O        O      0.874500000000     0.908900000000     0.630633333333     0          
O        O      0.911533333333     0.926250000000     0.587866666667     0          
O        O      0.869733333333     0.906500000000     0.513133333333     0          
O        O      0.938300000000     0.938400000000     0.534900000000     0          
O        O      0.993933333333     0.915750000000     0.602166666667     0          
O        O      0.669833333333     0.913350000000     0.536466666667     0          
O        O      0.666666666667     0.869550000000     0.333333333333     0          
O        O      0.720633333333     0.928000000000     0.334666666667     0          
O        O      0.792166666667     0.908900000000     0.369366666667     0          
O        O      0.755133333333     0.926250000000     0.412133333333     0          
O        O      0.796933333333     0.906500000000     0.486866666667     0          
O        O      0.728366666667     0.938400000000     0.465100000000     0          
O        O      0.672733333333     0.915750000000     0.397833333333     0          
O        O      0.996833333333     0.913350000000     0.463533333333     0          
O        O      0.887300000000     0.822000000000     0.334666666667     0          
O        O      0.934366666667     0.750000000000     0.372366666667     0          
O        O      0.958833333333     0.841100000000     0.369366666667     0          
O        O      0.921800000000     0.823750000000     0.412133333333     0          
O        O      0.946200000000     0.750000000000     0.463533333333     0          
O        O      0.963600000000     0.843500000000     0.486866666667     0          
O        O      0.895033333333     0.811600000000     0.465100000000     0          
O        O      0.839400000000     0.834250000000     0.397833333333     0          
O        O      0.838133333333     0.750000000000     0.434066666667     0          
O        O      0.830166666667     0.836650000000     0.463533333333     0          
O        O      0.833333333333     0.880450000000     0.333333333333     0          
O        O      0.779366666667     0.822000000000     0.665333333333     0          
O        O      0.732300000000     0.750000000000     0.627633333333     0          
O        O      0.707833333333     0.841100000000     0.630633333333     0          
O        O      0.744866666667     0.823750000000     0.587866666667     0          
O        O      0.720466666667     0.750000000000     0.536466666667     0          
O        O      0.703066666667     0.843500000000     0.513133333333     0          
O        O      0.771633333333     0.811600000000     0.534900000000     0          
O        O      0.827266666667     0.834250000000     0.602166666667     0          
O        O      0.828533333333     0.750000000000     0.565933333333     0          
O        O      0.836500000000     0.836650000000     0.536466666667     0          
O        O      0.779366666667     0.678000000000     0.665333333333     0          
O        O      0.707833333333     0.658900000000     0.630633333333     0          
O        O      0.744866666667     0.676250000000     0.587866666667     0          
O        O      0.703066666667     0.656500000000     0.513133333333     0          
O        O      0.771633333333     0.688400000000     0.534900000000     0          
O        O      0.827266666667     0.665750000000     0.602166666667     0          
O        O      0.836500000000     0.663350000000     0.536466666667     0          
O        O      0.833333333333     0.619550000000     0.333333333333     0          
O        O      0.887300000000     0.678000000000     0.334666666667     0          
O        O      0.958833333333     0.658900000000     0.369366666667     0          
O        O      0.921800000000     0.676250000000     0.412133333333     0          
O        O      0.963600000000     0.656500000000     0.486866666667     0          
O        O      0.895033333333     0.688400000000     0.465100000000     0          
O        O      0.839400000000     0.665750000000     0.397833333333     0          
O        O      0.830166666667     0.663350000000     0.463533333333     0          
O        O      0.720633333333     0.572000000000     0.668000000000     0          
O        O      0.767700000000     0.500000000000     0.705700000000     0          
O        O      0.792166666667     0.591100000000     0.702700000000     0          
O        O      0.755133333333     0.573750000000     0.745466666667     0          
O        O      0.779533333333     0.500000000000     0.796866666667     0          
O        O      0.796933333333     0.593500000000     0.820200000000     0          
O        O      0.728366666667     0.561600000000     0.798433333333     0          
O        O      0.672733333333     0.584250000000     0.731166666667     0          
O        O      0.671466666667     0.500000000000     0.767400000000     0          
O        O      0.996833333333     0.586650000000     0.796866666667     0          
O        O      0.666666666667     0.630450000000     0.666666666667     0          
O        O      0.946033333333     0.572000000000     0.998666666667     0          
O        O      0.898966666667     0.500000000000     0.960966666667     0          
O        O      0.874500000000     0.591100000000     0.963966666667     0          
O        O      0.911533333333     0.573750000000     0.921200000000     0          
O        O      0.887133333333     0.500000000000     0.869800000000     0          
O        O      0.869733333333     0.593500000000     0.846466666667     0          
O        O      0.938300000000     0.561600000000     0.868233333333     0          
O        O      0.993933333333     0.584250000000     0.935500000000     0          
O        O      0.995200000000     0.500000000000     0.899266666667     0          
O        O      0.669833333333     0.586650000000     0.869800000000     0          
O        O      0.946033333333     0.928000000000     0.998666666667     0          
O        O      0.874500000000     0.908900000000     0.963966666667     0          
O        O      0.911533333333     0.926250000000     0.921200000000     0          
O        O      0.869733333333     0.906500000000     0.846466666667     0          
O        O      0.938300000000     0.938400000000     0.868233333333     0          
O        O      0.993933333333     0.915750000000     0.935500000000     0          
O        O      0.669833333333     0.913350000000     0.869800000000     0          
O        O      0.666666666667     0.869550000000     0.666666666667     0          
O        O      0.720633333333     0.928000000000     0.668000000000     0          
O        O      0.792166666667     0.908900000000     0.702700000000     0          
O        O      0.755133333333     0.926250000000     0.745466666667     0          
O        O      0.796933333333     0.906500000000     0.820200000000     0          
O        O      0.728366666667     0.938400000000     0.798433333333     0          
O        O      0.672733333333     0.915750000000     0.731166666667     0          
O        O      0.996833333333     0.913350000000     0.796866666667     0          
O        O      0.887300000000     0.822000000000     0.668000000000     0          
O        O      0.934366666667     0.750000000000     0.705700000000     0          
O        O      0.958833333333     0.841100000000     0.702700000000     0          
O        O      0.921800000000     0.823750000000     0.745466666667     0          
O        O      0.946200000000     0.750000000000     0.796866666667     0          
O        O      0.963600000000     0.843500000000     0.820200000000     0          
O        O      0.895033333333     0.811600000000     0.798433333333     0          
O        O      0.839400000000     0.834250000000     0.731166666667     0          
O        O      0.838133333333     0.750000000000     0.767400000000     0          
O        O      0.830166666667     0.836650000000     0.796866666667     0          
O        O      0.833333333333     0.880450000000     0.666666666667     0          
O        O      0.779366666667     0.822000000000     0.998666666667     0          
O        O      0.732300000000     0.750000000000     0.960966666667     0          
O        O      0.707833333333     0.841100000000     0.963966666667     0          
O        O      0.744866666667     0.823750000000     0.921200000000     0          
O        O      0.720466666667     0.750000000000     0.869800000000     0          
O        O      0.703066666667     0.843500000000     0.846466666667     0          
O        O      0.771633333333     0.811600000000     0.868233333333     0          
O        O      0.827266666667     0.834250000000     0.935500000000     0          
O        O      0.828533333333     0.750000000000     0.899266666667     0          
O        O      0.836500000000     0.836650000000     0.869800000000     0          
O        O      0.779366666667     0.678000000000     0.998666666667     0          
O        O      0.707833333333     0.658900000000     0.963966666667     0          
O        O      0.744866666667     0.676250000000     0.921200000000     0          
O        O      0.703066666667     0.656500000000     0.846466666667     0          
O        O      0.771633333333     0.688400000000     0.868233333333     0          
O        O      0.827266666667     0.665750000000     0.935500000000     0          
O        O      0.836500000000     0.663350000000     0.869800000000     0          
O        O      0.833333333333     0.619550000000     0.666666666667     0          
O        O      0.887300000000     0.678000000000     0.668000000000     0          
O        O      0.958833333333     0.658900000000     0.702700000000     0          
O        O      0.921800000000     0.676250000000     0.745466666667     0          
O        O      0.963600000000     0.656500000000     0.820200000000     0          
O        O      0.895033333333     0.688400000000     0.798433333333     0          
O        O      0.839400000000     0.665750000000     0.731166666667     0          
O        O      0.830166666667     0.663350000000     0.796866666667     0          


