data_zeolite

_audit_creation_method RASPA-1.0
_audit_creation_date 2021-6-7
_audit_author_name ''

_cell_length_a    15.501
_cell_length_b    16.902
_cell_length_c    7.273
_cell_angle_alpha 90
_cell_angle_beta  96.07
_cell_angle_gamma 90
_cell_volume      30317.2

_symmetry_cell_setting          monoclinic
_symmetry_space_group_name_Hall 'P 1'
_symmetry_space_group_name_H-M  'P 1'
_symmetry_Int_Tables_number     1

_symmetry_equiv_pos_as_xyz 'x,y,z'

loop_
_atom_site_label
_atom_site_type_symbol
_atom_site_fract_x
_atom_site_fract_y
_atom_site_fract_z
_atom_site_charge
T        Si     0.403850000000     0.204450000000     0.234575000000     0          
T        Si     0.039550000000     0.367200000000     0.039025000000     0          
T        Si     0.161650000000     0.329350000000     0.090300000000     0          
T        Si     0.129250000000     0.336750000000     0.183775000000     0          
T        Si     0.000000000000     0.398200000000     0.125000000000     0          
T        Si     0.096150000000     0.204450000000     0.015425000000     0          
T        Si     0.460450000000     0.367200000000     0.210975000000     0          
T        Si     0.338350000000     0.329350000000     0.159700000000     0          
T        Si     0.370750000000     0.336750000000     0.066225000000     0          
T        Si     0.096150000000     0.295550000000     0.015425000000     0          
T        Si     0.460450000000     0.132800000000     0.210975000000     0          
T        Si     0.338350000000     0.170650000000     0.159700000000     0          
T        Si     0.370750000000     0.163250000000     0.066225000000     0          
T        Si     0.000000000000     0.101800000000     0.125000000000     0          
T        Si     0.403850000000     0.295550000000     0.234575000000     0          
T        Si     0.039550000000     0.132800000000     0.039025000000     0          
T        Si     0.161650000000     0.170650000000     0.090300000000     0          
T        Si     0.129250000000     0.163250000000     0.183775000000     0          
T        Si     0.153850000000     0.454450000000     0.234575000000     0          
T        Si     0.289550000000     0.117200000000     0.039025000000     0          
T        Si     0.411650000000     0.079350000000     0.090300000000     0          
T        Si     0.379250000000     0.086750000000     0.183775000000     0          
T        Si     0.250000000000     0.148200000000     0.125000000000     0          
T        Si     0.346150000000     0.454450000000     0.015425000000     0          
T        Si     0.210450000000     0.117200000000     0.210975000000     0          
T        Si     0.088350000000     0.079350000000     0.159700000000     0          
T        Si     0.120750000000     0.086750000000     0.066225000000     0          
T        Si     0.346150000000     0.045550000000     0.015425000000     0          
T        Si     0.210450000000     0.382800000000     0.210975000000     0          
T        Si     0.088350000000     0.420650000000     0.159700000000     0          
T        Si     0.120750000000     0.413250000000     0.066225000000     0          
T        Si     0.250000000000     0.351800000000     0.125000000000     0          
T        Si     0.153850000000     0.045550000000     0.234575000000     0          
T        Si     0.289550000000     0.382800000000     0.039025000000     0          
T        Si     0.411650000000     0.420650000000     0.090300000000     0          
T        Si     0.379250000000     0.413250000000     0.183775000000     0          
T        Si     0.403850000000     0.204450000000     0.484575000000     0          
T        Si     0.039550000000     0.367200000000     0.289025000000     0          
T        Si     0.161650000000     0.329350000000     0.340300000000     0          
T        Si     0.129250000000     0.336750000000     0.433775000000     0          
T        Si     0.000000000000     0.398200000000     0.375000000000     0          
T        Si     0.096150000000     0.204450000000     0.265425000000     0          
T        Si     0.460450000000     0.367200000000     0.460975000000     0          
T        Si     0.338350000000     0.329350000000     0.409700000000     0          
T        Si     0.370750000000     0.336750000000     0.316225000000     0          
T        Si     0.096150000000     0.295550000000     0.265425000000     0          
T        Si     0.460450000000     0.132800000000     0.460975000000     0          
T        Si     0.338350000000     0.170650000000     0.409700000000     0          
T        Si     0.370750000000     0.163250000000     0.316225000000     0          
T        Si     0.000000000000     0.101800000000     0.375000000000     0          
T        Si     0.403850000000     0.295550000000     0.484575000000     0          
T        Si     0.039550000000     0.132800000000     0.289025000000     0          
T        Si     0.161650000000     0.170650000000     0.340300000000     0          
T        Si     0.129250000000     0.163250000000     0.433775000000     0          
T        Si     0.153850000000     0.454450000000     0.484575000000     0          
T        Si     0.289550000000     0.117200000000     0.289025000000     0          
T        Si     0.411650000000     0.079350000000     0.340300000000     0          
T        Si     0.379250000000     0.086750000000     0.433775000000     0          
T        Si     0.250000000000     0.148200000000     0.375000000000     0          
T        Si     0.346150000000     0.454450000000     0.265425000000     0          
T        Si     0.210450000000     0.117200000000     0.460975000000     0          
T        Si     0.088350000000     0.079350000000     0.409700000000     0          
T        Si     0.120750000000     0.086750000000     0.316225000000     0          
T        Si     0.346150000000     0.045550000000     0.265425000000     0          
T        Si     0.210450000000     0.382800000000     0.460975000000     0          
T        Si     0.088350000000     0.420650000000     0.409700000000     0          
T        Si     0.120750000000     0.413250000000     0.316225000000     0          
T        Si     0.250000000000     0.351800000000     0.375000000000     0          
T        Si     0.153850000000     0.045550000000     0.484575000000     0          
T        Si     0.289550000000     0.382800000000     0.289025000000     0          
T        Si     0.411650000000     0.420650000000     0.340300000000     0          
T        Si     0.379250000000     0.413250000000     0.433775000000     0          
T        Si     0.403850000000     0.204450000000     0.734575000000     0          
T        Si     0.039550000000     0.367200000000     0.539025000000     0          
T        Si     0.161650000000     0.329350000000     0.590300000000     0          
T        Si     0.129250000000     0.336750000000     0.683775000000     0          
T        Si     0.000000000000     0.398200000000     0.625000000000     0          
T        Si     0.096150000000     0.204450000000     0.515425000000     0          
T        Si     0.460450000000     0.367200000000     0.710975000000     0          
T        Si     0.338350000000     0.329350000000     0.659700000000     0          
T        Si     0.370750000000     0.336750000000     0.566225000000     0          
T        Si     0.096150000000     0.295550000000     0.515425000000     0          
T        Si     0.460450000000     0.132800000000     0.710975000000     0          
T        Si     0.338350000000     0.170650000000     0.659700000000     0          
T        Si     0.370750000000     0.163250000000     0.566225000000     0          
T        Si     0.000000000000     0.101800000000     0.625000000000     0          
T        Si     0.403850000000     0.295550000000     0.734575000000     0          
T        Si     0.039550000000     0.132800000000     0.539025000000     0          
T        Si     0.161650000000     0.170650000000     0.590300000000     0          
T        Si     0.129250000000     0.163250000000     0.683775000000     0          
T        Si     0.153850000000     0.454450000000     0.734575000000     0          
T        Si     0.289550000000     0.117200000000     0.539025000000     0          
T        Si     0.411650000000     0.079350000000     0.590300000000     0          
T        Si     0.379250000000     0.086750000000     0.683775000000     0          
T        Si     0.250000000000     0.148200000000     0.625000000000     0          
T        Si     0.346150000000     0.454450000000     0.515425000000     0          
T        Si     0.210450000000     0.117200000000     0.710975000000     0          
T        Si     0.088350000000     0.079350000000     0.659700000000     0          
T        Si     0.120750000000     0.086750000000     0.566225000000     0          
T        Si     0.346150000000     0.045550000000     0.515425000000     0          
T        Si     0.210450000000     0.382800000000     0.710975000000     0          
T        Si     0.088350000000     0.420650000000     0.659700000000     0          
T        Si     0.120750000000     0.413250000000     0.566225000000     0          
T        Si     0.250000000000     0.351800000000     0.625000000000     0          
T        Si     0.153850000000     0.045550000000     0.734575000000     0          
T        Si     0.289550000000     0.382800000000     0.539025000000     0          
T        Si     0.411650000000     0.420650000000     0.590300000000     0          
T        Si     0.379250000000     0.413250000000     0.683775000000     0          
T        Si     0.403850000000     0.204450000000     0.984575000000     0          
T        Si     0.039550000000     0.367200000000     0.789025000000     0          
T        Si     0.161650000000     0.329350000000     0.840300000000     0          
T        Si     0.129250000000     0.336750000000     0.933775000000     0          
T        Si     0.000000000000     0.398200000000     0.875000000000     0          
T        Si     0.096150000000     0.204450000000     0.765425000000     0          
T        Si     0.460450000000     0.367200000000     0.960975000000     0          
T        Si     0.338350000000     0.329350000000     0.909700000000     0          
T        Si     0.370750000000     0.336750000000     0.816225000000     0          
T        Si     0.096150000000     0.295550000000     0.765425000000     0          
T        Si     0.460450000000     0.132800000000     0.960975000000     0          
T        Si     0.338350000000     0.170650000000     0.909700000000     0          
T        Si     0.370750000000     0.163250000000     0.816225000000     0          
T        Si     0.000000000000     0.101800000000     0.875000000000     0          
T        Si     0.403850000000     0.295550000000     0.984575000000     0          
T        Si     0.039550000000     0.132800000000     0.789025000000     0          
T        Si     0.161650000000     0.170650000000     0.840300000000     0          
T        Si     0.129250000000     0.163250000000     0.933775000000     0          
T        Si     0.153850000000     0.454450000000     0.984575000000     0          
T        Si     0.289550000000     0.117200000000     0.789025000000     0          
T        Si     0.411650000000     0.079350000000     0.840300000000     0          
T        Si     0.379250000000     0.086750000000     0.933775000000     0          
T        Si     0.250000000000     0.148200000000     0.875000000000     0          
T        Si     0.346150000000     0.454450000000     0.765425000000     0          
T        Si     0.210450000000     0.117200000000     0.960975000000     0          
T        Si     0.088350000000     0.079350000000     0.909700000000     0          
T        Si     0.120750000000     0.086750000000     0.816225000000     0          
T        Si     0.346150000000     0.045550000000     0.765425000000     0          
T        Si     0.210450000000     0.382800000000     0.960975000000     0          
T        Si     0.088350000000     0.420650000000     0.909700000000     0          
T        Si     0.120750000000     0.413250000000     0.816225000000     0          
T        Si     0.250000000000     0.351800000000     0.875000000000     0          
T        Si     0.153850000000     0.045550000000     0.984575000000     0          
T        Si     0.289550000000     0.382800000000     0.789025000000     0          
T        Si     0.411650000000     0.420650000000     0.840300000000     0          
T        Si     0.379250000000     0.413250000000     0.933775000000     0          
T        Si     0.403850000000     0.704450000000     0.234575000000     0          
T        Si     0.039550000000     0.867200000000     0.039025000000     0          
T        Si     0.161650000000     0.829350000000     0.090300000000     0          
T        Si     0.129250000000     0.836750000000     0.183775000000     0          
T        Si     0.000000000000     0.898200000000     0.125000000000     0          
T        Si     0.096150000000     0.704450000000     0.015425000000     0          
T        Si     0.460450000000     0.867200000000     0.210975000000     0          
T        Si     0.338350000000     0.829350000000     0.159700000000     0          
T        Si     0.370750000000     0.836750000000     0.066225000000     0          
T        Si     0.096150000000     0.795550000000     0.015425000000     0          
T        Si     0.460450000000     0.632800000000     0.210975000000     0          
T        Si     0.338350000000     0.670650000000     0.159700000000     0          
T        Si     0.370750000000     0.663250000000     0.066225000000     0          
T        Si     0.000000000000     0.601800000000     0.125000000000     0          
T        Si     0.403850000000     0.795550000000     0.234575000000     0          
T        Si     0.039550000000     0.632800000000     0.039025000000     0          
T        Si     0.161650000000     0.670650000000     0.090300000000     0          
T        Si     0.129250000000     0.663250000000     0.183775000000     0          
T        Si     0.153850000000     0.954450000000     0.234575000000     0          
T        Si     0.289550000000     0.617200000000     0.039025000000     0          
T        Si     0.411650000000     0.579350000000     0.090300000000     0          
T        Si     0.379250000000     0.586750000000     0.183775000000     0          
T        Si     0.250000000000     0.648200000000     0.125000000000     0          
T        Si     0.346150000000     0.954450000000     0.015425000000     0          
T        Si     0.210450000000     0.617200000000     0.210975000000     0          
T        Si     0.088350000000     0.579350000000     0.159700000000     0          
T        Si     0.120750000000     0.586750000000     0.066225000000     0          
T        Si     0.346150000000     0.545550000000     0.015425000000     0          
T        Si     0.210450000000     0.882800000000     0.210975000000     0          
T        Si     0.088350000000     0.920650000000     0.159700000000     0          
T        Si     0.120750000000     0.913250000000     0.066225000000     0          
T        Si     0.250000000000     0.851800000000     0.125000000000     0          
T        Si     0.153850000000     0.545550000000     0.234575000000     0          
T        Si     0.289550000000     0.882800000000     0.039025000000     0          
T        Si     0.411650000000     0.920650000000     0.090300000000     0          
T        Si     0.379250000000     0.913250000000     0.183775000000     0          
T        Si     0.403850000000     0.704450000000     0.484575000000     0          
T        Si     0.039550000000     0.867200000000     0.289025000000     0          
T        Si     0.161650000000     0.829350000000     0.340300000000     0          
T        Si     0.129250000000     0.836750000000     0.433775000000     0          
T        Si     0.000000000000     0.898200000000     0.375000000000     0          
T        Si     0.096150000000     0.704450000000     0.265425000000     0          
T        Si     0.460450000000     0.867200000000     0.460975000000     0          
T        Si     0.338350000000     0.829350000000     0.409700000000     0          
T        Si     0.370750000000     0.836750000000     0.316225000000     0          
T        Si     0.096150000000     0.795550000000     0.265425000000     0          
T        Si     0.460450000000     0.632800000000     0.460975000000     0          
T        Si     0.338350000000     0.670650000000     0.409700000000     0          
T        Si     0.370750000000     0.663250000000     0.316225000000     0          
T        Si     0.000000000000     0.601800000000     0.375000000000     0          
T        Si     0.403850000000     0.795550000000     0.484575000000     0          
T        Si     0.039550000000     0.632800000000     0.289025000000     0          
T        Si     0.161650000000     0.670650000000     0.340300000000     0          
T        Si     0.129250000000     0.663250000000     0.433775000000     0          
T        Si     0.153850000000     0.954450000000     0.484575000000     0          
T        Si     0.289550000000     0.617200000000     0.289025000000     0          
T        Si     0.411650000000     0.579350000000     0.340300000000     0          
T        Si     0.379250000000     0.586750000000     0.433775000000     0          
T        Si     0.250000000000     0.648200000000     0.375000000000     0          
T        Si     0.346150000000     0.954450000000     0.265425000000     0          
T        Si     0.210450000000     0.617200000000     0.460975000000     0          
T        Si     0.088350000000     0.579350000000     0.409700000000     0          
T        Si     0.120750000000     0.586750000000     0.316225000000     0          
T        Si     0.346150000000     0.545550000000     0.265425000000     0          
T        Si     0.210450000000     0.882800000000     0.460975000000     0          
T        Si     0.088350000000     0.920650000000     0.409700000000     0          
T        Si     0.120750000000     0.913250000000     0.316225000000     0          
T        Si     0.250000000000     0.851800000000     0.375000000000     0          
T        Si     0.153850000000     0.545550000000     0.484575000000     0          
T        Si     0.289550000000     0.882800000000     0.289025000000     0          
T        Si     0.411650000000     0.920650000000     0.340300000000     0          
T        Si     0.379250000000     0.913250000000     0.433775000000     0          
T        Si     0.403850000000     0.704450000000     0.734575000000     0          
T        Si     0.039550000000     0.867200000000     0.539025000000     0          
T        Si     0.161650000000     0.829350000000     0.590300000000     0          
T        Si     0.129250000000     0.836750000000     0.683775000000     0          
T        Si     0.000000000000     0.898200000000     0.625000000000     0          
T        Si     0.096150000000     0.704450000000     0.515425000000     0          
T        Si     0.460450000000     0.867200000000     0.710975000000     0          
T        Si     0.338350000000     0.829350000000     0.659700000000     0          
T        Si     0.370750000000     0.836750000000     0.566225000000     0          
T        Si     0.096150000000     0.795550000000     0.515425000000     0          
T        Si     0.460450000000     0.632800000000     0.710975000000     0          
T        Si     0.338350000000     0.670650000000     0.659700000000     0          
T        Si     0.370750000000     0.663250000000     0.566225000000     0          
T        Si     0.000000000000     0.601800000000     0.625000000000     0          
T        Si     0.403850000000     0.795550000000     0.734575000000     0          
T        Si     0.039550000000     0.632800000000     0.539025000000     0          
T        Si     0.161650000000     0.670650000000     0.590300000000     0          
T        Si     0.129250000000     0.663250000000     0.683775000000     0          
T        Si     0.153850000000     0.954450000000     0.734575000000     0          
T        Si     0.289550000000     0.617200000000     0.539025000000     0          
T        Si     0.411650000000     0.579350000000     0.590300000000     0          
T        Si     0.379250000000     0.586750000000     0.683775000000     0          
T        Si     0.250000000000     0.648200000000     0.625000000000     0          
T        Si     0.346150000000     0.954450000000     0.515425000000     0          
T        Si     0.210450000000     0.617200000000     0.710975000000     0          
T        Si     0.088350000000     0.579350000000     0.659700000000     0          
T        Si     0.120750000000     0.586750000000     0.566225000000     0          
T        Si     0.346150000000     0.545550000000     0.515425000000     0          
T        Si     0.210450000000     0.882800000000     0.710975000000     0          
T        Si     0.088350000000     0.920650000000     0.659700000000     0          
T        Si     0.120750000000     0.913250000000     0.566225000000     0          
T        Si     0.250000000000     0.851800000000     0.625000000000     0          
T        Si     0.153850000000     0.545550000000     0.734575000000     0          
T        Si     0.289550000000     0.882800000000     0.539025000000     0          
T        Si     0.411650000000     0.920650000000     0.590300000000     0          
T        Si     0.379250000000     0.913250000000     0.683775000000     0          
T        Si     0.403850000000     0.704450000000     0.984575000000     0          
T        Si     0.039550000000     0.867200000000     0.789025000000     0          
T        Si     0.161650000000     0.829350000000     0.840300000000     0          
T        Si     0.129250000000     0.836750000000     0.933775000000     0          
T        Si     0.000000000000     0.898200000000     0.875000000000     0          
T        Si     0.096150000000     0.704450000000     0.765425000000     0          
T        Si     0.460450000000     0.867200000000     0.960975000000     0          
T        Si     0.338350000000     0.829350000000     0.909700000000     0          
T        Si     0.370750000000     0.836750000000     0.816225000000     0          
T        Si     0.096150000000     0.795550000000     0.765425000000     0          
T        Si     0.460450000000     0.632800000000     0.960975000000     0          
T        Si     0.338350000000     0.670650000000     0.909700000000     0          
T        Si     0.370750000000     0.663250000000     0.816225000000     0          
T        Si     0.000000000000     0.601800000000     0.875000000000     0          
T        Si     0.403850000000     0.795550000000     0.984575000000     0          
T        Si     0.039550000000     0.632800000000     0.789025000000     0          
T        Si     0.161650000000     0.670650000000     0.840300000000     0          
T        Si     0.129250000000     0.663250000000     0.933775000000     0          
T        Si     0.153850000000     0.954450000000     0.984575000000     0          
T        Si     0.289550000000     0.617200000000     0.789025000000     0          
T        Si     0.411650000000     0.579350000000     0.840300000000     0          
T        Si     0.379250000000     0.586750000000     0.933775000000     0          
T        Si     0.250000000000     0.648200000000     0.875000000000     0          
T        Si     0.346150000000     0.954450000000     0.765425000000     0          
T        Si     0.210450000000     0.617200000000     0.960975000000     0          
T        Si     0.088350000000     0.579350000000     0.909700000000     0          
T        Si     0.120750000000     0.586750000000     0.816225000000     0          
T        Si     0.346150000000     0.545550000000     0.765425000000     0          
T        Si     0.210450000000     0.882800000000     0.960975000000     0          
T        Si     0.088350000000     0.920650000000     0.909700000000     0          
T        Si     0.120750000000     0.913250000000     0.816225000000     0          
T        Si     0.250000000000     0.851800000000     0.875000000000     0          
T        Si     0.153850000000     0.545550000000     0.984575000000     0          
T        Si     0.289550000000     0.882800000000     0.789025000000     0          
T        Si     0.411650000000     0.920650000000     0.840300000000     0          
T        Si     0.379250000000     0.913250000000     0.933775000000     0          
T        Si     0.903850000000     0.204450000000     0.234575000000     0          
T        Si     0.539550000000     0.367200000000     0.039025000000     0          
T        Si     0.661650000000     0.329350000000     0.090300000000     0          
T        Si     0.629250000000     0.336750000000     0.183775000000     0          
T        Si     0.500000000000     0.398200000000     0.125000000000     0          
T        Si     0.596150000000     0.204450000000     0.015425000000     0          
T        Si     0.960450000000     0.367200000000     0.210975000000     0          
T        Si     0.838350000000     0.329350000000     0.159700000000     0          
T        Si     0.870750000000     0.336750000000     0.066225000000     0          
T        Si     0.596150000000     0.295550000000     0.015425000000     0          
T        Si     0.960450000000     0.132800000000     0.210975000000     0          
T        Si     0.838350000000     0.170650000000     0.159700000000     0          
T        Si     0.870750000000     0.163250000000     0.066225000000     0          
T        Si     0.500000000000     0.101800000000     0.125000000000     0          
T        Si     0.903850000000     0.295550000000     0.234575000000     0          
T        Si     0.539550000000     0.132800000000     0.039025000000     0          
T        Si     0.661650000000     0.170650000000     0.090300000000     0          
T        Si     0.629250000000     0.163250000000     0.183775000000     0          
T        Si     0.653850000000     0.454450000000     0.234575000000     0          
T        Si     0.789550000000     0.117200000000     0.039025000000     0          
T        Si     0.911650000000     0.079350000000     0.090300000000     0          
T        Si     0.879250000000     0.086750000000     0.183775000000     0          
T        Si     0.750000000000     0.148200000000     0.125000000000     0          
T        Si     0.846150000000     0.454450000000     0.015425000000     0          
T        Si     0.710450000000     0.117200000000     0.210975000000     0          
T        Si     0.588350000000     0.079350000000     0.159700000000     0          
T        Si     0.620750000000     0.086750000000     0.066225000000     0          
T        Si     0.846150000000     0.045550000000     0.015425000000     0          
T        Si     0.710450000000     0.382800000000     0.210975000000     0          
T        Si     0.588350000000     0.420650000000     0.159700000000     0          
T        Si     0.620750000000     0.413250000000     0.066225000000     0          
T        Si     0.750000000000     0.351800000000     0.125000000000     0          
T        Si     0.653850000000     0.045550000000     0.234575000000     0          
T        Si     0.789550000000     0.382800000000     0.039025000000     0          
T        Si     0.911650000000     0.420650000000     0.090300000000     0          
T        Si     0.879250000000     0.413250000000     0.183775000000     0          
T        Si     0.903850000000     0.204450000000     0.484575000000     0          
T        Si     0.539550000000     0.367200000000     0.289025000000     0          
T        Si     0.661650000000     0.329350000000     0.340300000000     0          
T        Si     0.629250000000     0.336750000000     0.433775000000     0          
T        Si     0.500000000000     0.398200000000     0.375000000000     0          
T        Si     0.596150000000     0.204450000000     0.265425000000     0          
T        Si     0.960450000000     0.367200000000     0.460975000000     0          
T        Si     0.838350000000     0.329350000000     0.409700000000     0          
T        Si     0.870750000000     0.336750000000     0.316225000000     0          
T        Si     0.596150000000     0.295550000000     0.265425000000     0          
T        Si     0.960450000000     0.132800000000     0.460975000000     0          
T        Si     0.838350000000     0.170650000000     0.409700000000     0          
T        Si     0.870750000000     0.163250000000     0.316225000000     0          
T        Si     0.500000000000     0.101800000000     0.375000000000     0          
T        Si     0.903850000000     0.295550000000     0.484575000000     0          
T        Si     0.539550000000     0.132800000000     0.289025000000     0          
T        Si     0.661650000000     0.170650000000     0.340300000000     0          
T        Si     0.629250000000     0.163250000000     0.433775000000     0          
T        Si     0.653850000000     0.454450000000     0.484575000000     0          
T        Si     0.789550000000     0.117200000000     0.289025000000     0          
T        Si     0.911650000000     0.079350000000     0.340300000000     0          
T        Si     0.879250000000     0.086750000000     0.433775000000     0          
T        Si     0.750000000000     0.148200000000     0.375000000000     0          
T        Si     0.846150000000     0.454450000000     0.265425000000     0          
T        Si     0.710450000000     0.117200000000     0.460975000000     0          
T        Si     0.588350000000     0.079350000000     0.409700000000     0          
T        Si     0.620750000000     0.086750000000     0.316225000000     0          
T        Si     0.846150000000     0.045550000000     0.265425000000     0          
T        Si     0.710450000000     0.382800000000     0.460975000000     0          
T        Si     0.588350000000     0.420650000000     0.409700000000     0          
T        Si     0.620750000000     0.413250000000     0.316225000000     0          
T        Si     0.750000000000     0.351800000000     0.375000000000     0          
T        Si     0.653850000000     0.045550000000     0.484575000000     0          
T        Si     0.789550000000     0.382800000000     0.289025000000     0          
T        Si     0.911650000000     0.420650000000     0.340300000000     0          
T        Si     0.879250000000     0.413250000000     0.433775000000     0          
T        Si     0.903850000000     0.204450000000     0.734575000000     0          
T        Si     0.539550000000     0.367200000000     0.539025000000     0          
T        Si     0.661650000000     0.329350000000     0.590300000000     0          
T        Si     0.629250000000     0.336750000000     0.683775000000     0          
T        Si     0.500000000000     0.398200000000     0.625000000000     0          
T        Si     0.596150000000     0.204450000000     0.515425000000     0          
T        Si     0.960450000000     0.367200000000     0.710975000000     0          
T        Si     0.838350000000     0.329350000000     0.659700000000     0          
T        Si     0.870750000000     0.336750000000     0.566225000000     0          
T        Si     0.596150000000     0.295550000000     0.515425000000     0          
T        Si     0.960450000000     0.132800000000     0.710975000000     0          
T        Si     0.838350000000     0.170650000000     0.659700000000     0          
T        Si     0.870750000000     0.163250000000     0.566225000000     0          
T        Si     0.500000000000     0.101800000000     0.625000000000     0          
T        Si     0.903850000000     0.295550000000     0.734575000000     0          
T        Si     0.539550000000     0.132800000000     0.539025000000     0          
T        Si     0.661650000000     0.170650000000     0.590300000000     0          
T        Si     0.629250000000     0.163250000000     0.683775000000     0          
T        Si     0.653850000000     0.454450000000     0.734575000000     0          
T        Si     0.789550000000     0.117200000000     0.539025000000     0          
T        Si     0.911650000000     0.079350000000     0.590300000000     0          
T        Si     0.879250000000     0.086750000000     0.683775000000     0          
T        Si     0.750000000000     0.148200000000     0.625000000000     0          
T        Si     0.846150000000     0.454450000000     0.515425000000     0          
T        Si     0.710450000000     0.117200000000     0.710975000000     0          
T        Si     0.588350000000     0.079350000000     0.659700000000     0          
T        Si     0.620750000000     0.086750000000     0.566225000000     0          
T        Si     0.846150000000     0.045550000000     0.515425000000     0          
T        Si     0.710450000000     0.382800000000     0.710975000000     0          
T        Si     0.588350000000     0.420650000000     0.659700000000     0          
T        Si     0.620750000000     0.413250000000     0.566225000000     0          
T        Si     0.750000000000     0.351800000000     0.625000000000     0          
T        Si     0.653850000000     0.045550000000     0.734575000000     0          
T        Si     0.789550000000     0.382800000000     0.539025000000     0          
T        Si     0.911650000000     0.420650000000     0.590300000000     0          
T        Si     0.879250000000     0.413250000000     0.683775000000     0          
T        Si     0.903850000000     0.204450000000     0.984575000000     0          
T        Si     0.539550000000     0.367200000000     0.789025000000     0          
T        Si     0.661650000000     0.329350000000     0.840300000000     0          
T        Si     0.629250000000     0.336750000000     0.933775000000     0          
T        Si     0.500000000000     0.398200000000     0.875000000000     0          
T        Si     0.596150000000     0.204450000000     0.765425000000     0          
T        Si     0.960450000000     0.367200000000     0.960975000000     0          
T        Si     0.838350000000     0.329350000000     0.909700000000     0          
T        Si     0.870750000000     0.336750000000     0.816225000000     0          
T        Si     0.596150000000     0.295550000000     0.765425000000     0          
T        Si     0.960450000000     0.132800000000     0.960975000000     0          
T        Si     0.838350000000     0.170650000000     0.909700000000     0          
T        Si     0.870750000000     0.163250000000     0.816225000000     0          
T        Si     0.500000000000     0.101800000000     0.875000000000     0          
T        Si     0.903850000000     0.295550000000     0.984575000000     0          
T        Si     0.539550000000     0.132800000000     0.789025000000     0          
T        Si     0.661650000000     0.170650000000     0.840300000000     0          
T        Si     0.629250000000     0.163250000000     0.933775000000     0          
T        Si     0.653850000000     0.454450000000     0.984575000000     0          
T        Si     0.789550000000     0.117200000000     0.789025000000     0          
T        Si     0.911650000000     0.079350000000     0.840300000000     0          
T        Si     0.879250000000     0.086750000000     0.933775000000     0          
T        Si     0.750000000000     0.148200000000     0.875000000000     0          
T        Si     0.846150000000     0.454450000000     0.765425000000     0          
T        Si     0.710450000000     0.117200000000     0.960975000000     0          
T        Si     0.588350000000     0.079350000000     0.909700000000     0          
T        Si     0.620750000000     0.086750000000     0.816225000000     0          
T        Si     0.846150000000     0.045550000000     0.765425000000     0          
T        Si     0.710450000000     0.382800000000     0.960975000000     0          
T        Si     0.588350000000     0.420650000000     0.909700000000     0          
T        Si     0.620750000000     0.413250000000     0.816225000000     0          
T        Si     0.750000000000     0.351800000000     0.875000000000     0          
T        Si     0.653850000000     0.045550000000     0.984575000000     0          
T        Si     0.789550000000     0.382800000000     0.789025000000     0          
T        Si     0.911650000000     0.420650000000     0.840300000000     0          
T        Si     0.879250000000     0.413250000000     0.933775000000     0          
T        Si     0.903850000000     0.704450000000     0.234575000000     0          
T        Si     0.539550000000     0.867200000000     0.039025000000     0          
T        Si     0.661650000000     0.829350000000     0.090300000000     0          
T        Si     0.629250000000     0.836750000000     0.183775000000     0          
T        Si     0.500000000000     0.898200000000     0.125000000000     0          
T        Si     0.596150000000     0.704450000000     0.015425000000     0          
T        Si     0.960450000000     0.867200000000     0.210975000000     0          
T        Si     0.838350000000     0.829350000000     0.159700000000     0          
T        Si     0.870750000000     0.836750000000     0.066225000000     0          
T        Si     0.596150000000     0.795550000000     0.015425000000     0          
T        Si     0.960450000000     0.632800000000     0.210975000000     0          
T        Si     0.838350000000     0.670650000000     0.159700000000     0          
T        Si     0.870750000000     0.663250000000     0.066225000000     0          
T        Si     0.500000000000     0.601800000000     0.125000000000     0          
T        Si     0.903850000000     0.795550000000     0.234575000000     0          
T        Si     0.539550000000     0.632800000000     0.039025000000     0          
T        Si     0.661650000000     0.670650000000     0.090300000000     0          
T        Si     0.629250000000     0.663250000000     0.183775000000     0          
T        Si     0.653850000000     0.954450000000     0.234575000000     0          
T        Si     0.789550000000     0.617200000000     0.039025000000     0          
T        Si     0.911650000000     0.579350000000     0.090300000000     0          
T        Si     0.879250000000     0.586750000000     0.183775000000     0          
T        Si     0.750000000000     0.648200000000     0.125000000000     0          
T        Si     0.846150000000     0.954450000000     0.015425000000     0          
T        Si     0.710450000000     0.617200000000     0.210975000000     0          
T        Si     0.588350000000     0.579350000000     0.159700000000     0          
T        Si     0.620750000000     0.586750000000     0.066225000000     0          
T        Si     0.846150000000     0.545550000000     0.015425000000     0          
T        Si     0.710450000000     0.882800000000     0.210975000000     0          
T        Si     0.588350000000     0.920650000000     0.159700000000     0          
T        Si     0.620750000000     0.913250000000     0.066225000000     0          
T        Si     0.750000000000     0.851800000000     0.125000000000     0          
T        Si     0.653850000000     0.545550000000     0.234575000000     0          
T        Si     0.789550000000     0.882800000000     0.039025000000     0          
T        Si     0.911650000000     0.920650000000     0.090300000000     0          
T        Si     0.879250000000     0.913250000000     0.183775000000     0          
T        Si     0.903850000000     0.704450000000     0.484575000000     0          
T        Si     0.539550000000     0.867200000000     0.289025000000     0          
T        Si     0.661650000000     0.829350000000     0.340300000000     0          
T        Si     0.629250000000     0.836750000000     0.433775000000     0          
T        Si     0.500000000000     0.898200000000     0.375000000000     0          
T        Si     0.596150000000     0.704450000000     0.265425000000     0          
T        Si     0.960450000000     0.867200000000     0.460975000000     0          
T        Si     0.838350000000     0.829350000000     0.409700000000     0          
T        Si     0.870750000000     0.836750000000     0.316225000000     0          
T        Si     0.596150000000     0.795550000000     0.265425000000     0          
T        Si     0.960450000000     0.632800000000     0.460975000000     0          
T        Si     0.838350000000     0.670650000000     0.409700000000     0          
T        Si     0.870750000000     0.663250000000     0.316225000000     0          
T        Si     0.500000000000     0.601800000000     0.375000000000     0          
T        Si     0.903850000000     0.795550000000     0.484575000000     0          
T        Si     0.539550000000     0.632800000000     0.289025000000     0          
T        Si     0.661650000000     0.670650000000     0.340300000000     0          
T        Si     0.629250000000     0.663250000000     0.433775000000     0          
T        Si     0.653850000000     0.954450000000     0.484575000000     0          
T        Si     0.789550000000     0.617200000000     0.289025000000     0          
T        Si     0.911650000000     0.579350000000     0.340300000000     0          
T        Si     0.879250000000     0.586750000000     0.433775000000     0          
T        Si     0.750000000000     0.648200000000     0.375000000000     0          
T        Si     0.846150000000     0.954450000000     0.265425000000     0          
T        Si     0.710450000000     0.617200000000     0.460975000000     0          
T        Si     0.588350000000     0.579350000000     0.409700000000     0          
T        Si     0.620750000000     0.586750000000     0.316225000000     0          
T        Si     0.846150000000     0.545550000000     0.265425000000     0          
T        Si     0.710450000000     0.882800000000     0.460975000000     0          
T        Si     0.588350000000     0.920650000000     0.409700000000     0          
T        Si     0.620750000000     0.913250000000     0.316225000000     0          
T        Si     0.750000000000     0.851800000000     0.375000000000     0          
T        Si     0.653850000000     0.545550000000     0.484575000000     0          
T        Si     0.789550000000     0.882800000000     0.289025000000     0          
T        Si     0.911650000000     0.920650000000     0.340300000000     0          
T        Si     0.879250000000     0.913250000000     0.433775000000     0          
T        Si     0.903850000000     0.704450000000     0.734575000000     0          
T        Si     0.539550000000     0.867200000000     0.539025000000     0          
T        Si     0.661650000000     0.829350000000     0.590300000000     0          
T        Si     0.629250000000     0.836750000000     0.683775000000     0          
T        Si     0.500000000000     0.898200000000     0.625000000000     0          
T        Si     0.596150000000     0.704450000000     0.515425000000     0          
T        Si     0.960450000000     0.867200000000     0.710975000000     0          
T        Si     0.838350000000     0.829350000000     0.659700000000     0          
T        Si     0.870750000000     0.836750000000     0.566225000000     0          
T        Si     0.596150000000     0.795550000000     0.515425000000     0          
T        Si     0.960450000000     0.632800000000     0.710975000000     0          
T        Si     0.838350000000     0.670650000000     0.659700000000     0          
T        Si     0.870750000000     0.663250000000     0.566225000000     0          
T        Si     0.500000000000     0.601800000000     0.625000000000     0          
T        Si     0.903850000000     0.795550000000     0.734575000000     0          
T        Si     0.539550000000     0.632800000000     0.539025000000     0          
T        Si     0.661650000000     0.670650000000     0.590300000000     0          
T        Si     0.629250000000     0.663250000000     0.683775000000     0          
T        Si     0.653850000000     0.954450000000     0.734575000000     0          
T        Si     0.789550000000     0.617200000000     0.539025000000     0          
T        Si     0.911650000000     0.579350000000     0.590300000000     0          
T        Si     0.879250000000     0.586750000000     0.683775000000     0          
T        Si     0.750000000000     0.648200000000     0.625000000000     0          
T        Si     0.846150000000     0.954450000000     0.515425000000     0          
T        Si     0.710450000000     0.617200000000     0.710975000000     0          
T        Si     0.588350000000     0.579350000000     0.659700000000     0          
T        Si     0.620750000000     0.586750000000     0.566225000000     0          
T        Si     0.846150000000     0.545550000000     0.515425000000     0          
T        Si     0.710450000000     0.882800000000     0.710975000000     0          
T        Si     0.588350000000     0.920650000000     0.659700000000     0          
T        Si     0.620750000000     0.913250000000     0.566225000000     0          
T        Si     0.750000000000     0.851800000000     0.625000000000     0          
T        Si     0.653850000000     0.545550000000     0.734575000000     0          
T        Si     0.789550000000     0.882800000000     0.539025000000     0          
T        Si     0.911650000000     0.920650000000     0.590300000000     0          
T        Si     0.879250000000     0.913250000000     0.683775000000     0          
T        Si     0.903850000000     0.704450000000     0.984575000000     0          
T        Si     0.539550000000     0.867200000000     0.789025000000     0          
T        Si     0.661650000000     0.829350000000     0.840300000000     0          
T        Si     0.629250000000     0.836750000000     0.933775000000     0          
T        Si     0.500000000000     0.898200000000     0.875000000000     0          
T        Si     0.596150000000     0.704450000000     0.765425000000     0          
T        Si     0.960450000000     0.867200000000     0.960975000000     0          
T        Si     0.838350000000     0.829350000000     0.909700000000     0          
T        Si     0.870750000000     0.836750000000     0.816225000000     0          
T        Si     0.596150000000     0.795550000000     0.765425000000     0          
T        Si     0.960450000000     0.632800000000     0.960975000000     0          
T        Si     0.838350000000     0.670650000000     0.909700000000     0          
T        Si     0.870750000000     0.663250000000     0.816225000000     0          
T        Si     0.500000000000     0.601800000000     0.875000000000     0          
T        Si     0.903850000000     0.795550000000     0.984575000000     0          
T        Si     0.539550000000     0.632800000000     0.789025000000     0          
T        Si     0.661650000000     0.670650000000     0.840300000000     0          
T        Si     0.629250000000     0.663250000000     0.933775000000     0          
T        Si     0.653850000000     0.954450000000     0.984575000000     0          
T        Si     0.789550000000     0.617200000000     0.789025000000     0          
T        Si     0.911650000000     0.579350000000     0.840300000000     0          
T        Si     0.879250000000     0.586750000000     0.933775000000     0          
T        Si     0.750000000000     0.648200000000     0.875000000000     0          
T        Si     0.846150000000     0.954450000000     0.765425000000     0          
T        Si     0.710450000000     0.617200000000     0.960975000000     0          
T        Si     0.588350000000     0.579350000000     0.909700000000     0          
T        Si     0.620750000000     0.586750000000     0.816225000000     0          
T        Si     0.846150000000     0.545550000000     0.765425000000     0          
T        Si     0.710450000000     0.882800000000     0.960975000000     0          
T        Si     0.588350000000     0.920650000000     0.909700000000     0          
T        Si     0.620750000000     0.913250000000     0.816225000000     0          
T        Si     0.750000000000     0.851800000000     0.875000000000     0          
T        Si     0.653850000000     0.545550000000     0.984575000000     0          
T        Si     0.789550000000     0.882800000000     0.789025000000     0          
T        Si     0.911650000000     0.920650000000     0.840300000000     0          
T        Si     0.879250000000     0.913250000000     0.933775000000     0          
O        O      0.022450000000     0.370550000000     0.089250000000     0          
O        O      0.286350000000     0.175750000000     0.152750000000     0          
O        O      0.140850000000     0.302550000000     0.047925000000     0          
O        O      0.141900000000     0.316300000000     0.137025000000     0          
O        O      0.150650000000     0.375150000000     0.079475000000     0          
O        O      0.327250000000     0.149450000000     0.035200000000     0          
O        O      0.058800000000     0.323600000000     0.032150000000     0          
O        O      0.000000000000     0.375800000000     0.000000000000     0          
O        O      0.103200000000     0.305900000000     0.212700000000     0          
O        O      0.081700000000     0.250000000000     0.018825000000     0          
O        O      0.477550000000     0.370550000000     0.160750000000     0          
O        O      0.213650000000     0.175750000000     0.097250000000     0          
O        O      0.359150000000     0.302550000000     0.202075000000     0          
O        O      0.358100000000     0.316300000000     0.112975000000     0          
O        O      0.349350000000     0.375150000000     0.170525000000     0          
O        O      0.172750000000     0.149450000000     0.214800000000     0          
O        O      0.441200000000     0.323600000000     0.217850000000     0          
O        O      0.396800000000     0.305900000000     0.037300000000     0          
O        O      0.418300000000     0.250000000000     0.231175000000     0          
O        O      0.477550000000     0.129450000000     0.160750000000     0          
O        O      0.213650000000     0.324250000000     0.097250000000     0          
O        O      0.359150000000     0.197450000000     0.202075000000     0          
O        O      0.358100000000     0.183700000000     0.112975000000     0          
O        O      0.349350000000     0.124850000000     0.170525000000     0          
O        O      0.172750000000     0.350550000000     0.214800000000     0          
O        O      0.441200000000     0.176400000000     0.217850000000     0          
O        O      0.000000000000     0.124200000000     0.000000000000     0          
O        O      0.396800000000     0.194100000000     0.037300000000     0          
O        O      0.022450000000     0.129450000000     0.089250000000     0          
O        O      0.286350000000     0.324250000000     0.152750000000     0          
O        O      0.140850000000     0.197450000000     0.047925000000     0          
O        O      0.141900000000     0.183700000000     0.137025000000     0          
O        O      0.150650000000     0.124850000000     0.079475000000     0          
O        O      0.327250000000     0.350550000000     0.035200000000     0          
O        O      0.058800000000     0.176400000000     0.032150000000     0          
O        O      0.103200000000     0.194100000000     0.212700000000     0          
O        O      0.272450000000     0.120550000000     0.089250000000     0          
O        O      0.036350000000     0.425750000000     0.152750000000     0          
O        O      0.390850000000     0.052550000000     0.047925000000     0          
O        O      0.391900000000     0.066300000000     0.137025000000     0          
O        O      0.400650000000     0.125150000000     0.079475000000     0          
O        O      0.077250000000     0.399450000000     0.035200000000     0          
O        O      0.308800000000     0.073600000000     0.032150000000     0          
O        O      0.250000000000     0.125800000000     0.000000000000     0          
O        O      0.353200000000     0.055900000000     0.212700000000     0          
O        O      0.331700000000     0.000000000000     0.018825000000     0          
O        O      0.227550000000     0.120550000000     0.160750000000     0          
O        O      0.463650000000     0.425750000000     0.097250000000     0          
O        O      0.109150000000     0.052550000000     0.202075000000     0          
O        O      0.108100000000     0.066300000000     0.112975000000     0          
O        O      0.099350000000     0.125150000000     0.170525000000     0          
O        O      0.422750000000     0.399450000000     0.214800000000     0          
O        O      0.191200000000     0.073600000000     0.217850000000     0          
O        O      0.146800000000     0.055900000000     0.037300000000     0          
O        O      0.168300000000     0.000000000000     0.231175000000     0          
O        O      0.227550000000     0.379450000000     0.160750000000     0          
O        O      0.463650000000     0.074250000000     0.097250000000     0          
O        O      0.109150000000     0.447450000000     0.202075000000     0          
O        O      0.108100000000     0.433700000000     0.112975000000     0          
O        O      0.099350000000     0.374850000000     0.170525000000     0          
O        O      0.422750000000     0.100550000000     0.214800000000     0          
O        O      0.191200000000     0.426400000000     0.217850000000     0          
O        O      0.250000000000     0.374200000000     0.000000000000     0          
O        O      0.146800000000     0.444100000000     0.037300000000     0          
O        O      0.272450000000     0.379450000000     0.089250000000     0          
O        O      0.036350000000     0.074250000000     0.152750000000     0          
O        O      0.390850000000     0.447450000000     0.047925000000     0          
O        O      0.391900000000     0.433700000000     0.137025000000     0          
O        O      0.400650000000     0.374850000000     0.079475000000     0          
O        O      0.077250000000     0.100550000000     0.035200000000     0          
O        O      0.308800000000     0.426400000000     0.032150000000     0          
O        O      0.353200000000     0.444100000000     0.212700000000     0          
O        O      0.022450000000     0.370550000000     0.339250000000     0          
O        O      0.286350000000     0.175750000000     0.402750000000     0          
O        O      0.140850000000     0.302550000000     0.297925000000     0          
O        O      0.141900000000     0.316300000000     0.387025000000     0          
O        O      0.150650000000     0.375150000000     0.329475000000     0          
O        O      0.327250000000     0.149450000000     0.285200000000     0          
O        O      0.058800000000     0.323600000000     0.282150000000     0          
O        O      0.000000000000     0.375800000000     0.250000000000     0          
O        O      0.103200000000     0.305900000000     0.462700000000     0          
O        O      0.081700000000     0.250000000000     0.268825000000     0          
O        O      0.477550000000     0.370550000000     0.410750000000     0          
O        O      0.213650000000     0.175750000000     0.347250000000     0          
O        O      0.359150000000     0.302550000000     0.452075000000     0          
O        O      0.358100000000     0.316300000000     0.362975000000     0          
O        O      0.349350000000     0.375150000000     0.420525000000     0          
O        O      0.172750000000     0.149450000000     0.464800000000     0          
O        O      0.441200000000     0.323600000000     0.467850000000     0          
O        O      0.396800000000     0.305900000000     0.287300000000     0          
O        O      0.418300000000     0.250000000000     0.481175000000     0          
O        O      0.477550000000     0.129450000000     0.410750000000     0          
O        O      0.213650000000     0.324250000000     0.347250000000     0          
O        O      0.359150000000     0.197450000000     0.452075000000     0          
O        O      0.358100000000     0.183700000000     0.362975000000     0          
O        O      0.349350000000     0.124850000000     0.420525000000     0          
O        O      0.172750000000     0.350550000000     0.464800000000     0          
O        O      0.441200000000     0.176400000000     0.467850000000     0          
O        O      0.000000000000     0.124200000000     0.250000000000     0          
O        O      0.396800000000     0.194100000000     0.287300000000     0          
O        O      0.022450000000     0.129450000000     0.339250000000     0          
O        O      0.286350000000     0.324250000000     0.402750000000     0          
O        O      0.140850000000     0.197450000000     0.297925000000     0          
O        O      0.141900000000     0.183700000000     0.387025000000     0          
O        O      0.150650000000     0.124850000000     0.329475000000     0          
O        O      0.327250000000     0.350550000000     0.285200000000     0          
O        O      0.058800000000     0.176400000000     0.282150000000     0          
O        O      0.103200000000     0.194100000000     0.462700000000     0          
O        O      0.272450000000     0.120550000000     0.339250000000     0          
O        O      0.036350000000     0.425750000000     0.402750000000     0          
O        O      0.390850000000     0.052550000000     0.297925000000     0          
O        O      0.391900000000     0.066300000000     0.387025000000     0          
O        O      0.400650000000     0.125150000000     0.329475000000     0          
O        O      0.077250000000     0.399450000000     0.285200000000     0          
O        O      0.308800000000     0.073600000000     0.282150000000     0          
O        O      0.250000000000     0.125800000000     0.250000000000     0          
O        O      0.353200000000     0.055900000000     0.462700000000     0          
O        O      0.331700000000     0.000000000000     0.268825000000     0          
O        O      0.227550000000     0.120550000000     0.410750000000     0          
O        O      0.463650000000     0.425750000000     0.347250000000     0          
O        O      0.109150000000     0.052550000000     0.452075000000     0          
O        O      0.108100000000     0.066300000000     0.362975000000     0          
O        O      0.099350000000     0.125150000000     0.420525000000     0          
O        O      0.422750000000     0.399450000000     0.464800000000     0          
O        O      0.191200000000     0.073600000000     0.467850000000     0          
O        O      0.146800000000     0.055900000000     0.287300000000     0          
O        O      0.168300000000     0.000000000000     0.481175000000     0          
O        O      0.227550000000     0.379450000000     0.410750000000     0          
O        O      0.463650000000     0.074250000000     0.347250000000     0          
O        O      0.109150000000     0.447450000000     0.452075000000     0          
O        O      0.108100000000     0.433700000000     0.362975000000     0          
O        O      0.099350000000     0.374850000000     0.420525000000     0          
O        O      0.422750000000     0.100550000000     0.464800000000     0          
O        O      0.191200000000     0.426400000000     0.467850000000     0          
O        O      0.250000000000     0.374200000000     0.250000000000     0          
O        O      0.146800000000     0.444100000000     0.287300000000     0          
O        O      0.272450000000     0.379450000000     0.339250000000     0          
O        O      0.036350000000     0.074250000000     0.402750000000     0          
O        O      0.390850000000     0.447450000000     0.297925000000     0          
O        O      0.391900000000     0.433700000000     0.387025000000     0          
O        O      0.400650000000     0.374850000000     0.329475000000     0          
O        O      0.077250000000     0.100550000000     0.285200000000     0          
O        O      0.308800000000     0.426400000000     0.282150000000     0          
O        O      0.353200000000     0.444100000000     0.462700000000     0          
O        O      0.022450000000     0.370550000000     0.589250000000     0          
O        O      0.286350000000     0.175750000000     0.652750000000     0          
O        O      0.140850000000     0.302550000000     0.547925000000     0          
O        O      0.141900000000     0.316300000000     0.637025000000     0          
O        O      0.150650000000     0.375150000000     0.579475000000     0          
O        O      0.327250000000     0.149450000000     0.535200000000     0          
O        O      0.058800000000     0.323600000000     0.532150000000     0          
O        O      0.000000000000     0.375800000000     0.500000000000     0          
O        O      0.103200000000     0.305900000000     0.712700000000     0          
O        O      0.081700000000     0.250000000000     0.518825000000     0          
O        O      0.477550000000     0.370550000000     0.660750000000     0          
O        O      0.213650000000     0.175750000000     0.597250000000     0          
O        O      0.359150000000     0.302550000000     0.702075000000     0          
O        O      0.358100000000     0.316300000000     0.612975000000     0          
O        O      0.349350000000     0.375150000000     0.670525000000     0          
O        O      0.172750000000     0.149450000000     0.714800000000     0          
O        O      0.441200000000     0.323600000000     0.717850000000     0          
O        O      0.396800000000     0.305900000000     0.537300000000     0          
O        O      0.418300000000     0.250000000000     0.731175000000     0          
O        O      0.477550000000     0.129450000000     0.660750000000     0          
O        O      0.213650000000     0.324250000000     0.597250000000     0          
O        O      0.359150000000     0.197450000000     0.702075000000     0          
O        O      0.358100000000     0.183700000000     0.612975000000     0          
O        O      0.349350000000     0.124850000000     0.670525000000     0          
O        O      0.172750000000     0.350550000000     0.714800000000     0          
O        O      0.441200000000     0.176400000000     0.717850000000     0          
O        O      0.000000000000     0.124200000000     0.500000000000     0          
O        O      0.396800000000     0.194100000000     0.537300000000     0          
O        O      0.022450000000     0.129450000000     0.589250000000     0          
O        O      0.286350000000     0.324250000000     0.652750000000     0          
O        O      0.140850000000     0.197450000000     0.547925000000     0          
O        O      0.141900000000     0.183700000000     0.637025000000     0          
O        O      0.150650000000     0.124850000000     0.579475000000     0          
O        O      0.327250000000     0.350550000000     0.535200000000     0          
O        O      0.058800000000     0.176400000000     0.532150000000     0          
O        O      0.103200000000     0.194100000000     0.712700000000     0          
O        O      0.272450000000     0.120550000000     0.589250000000     0          
O        O      0.036350000000     0.425750000000     0.652750000000     0          
O        O      0.390850000000     0.052550000000     0.547925000000     0          
O        O      0.391900000000     0.066300000000     0.637025000000     0          
O        O      0.400650000000     0.125150000000     0.579475000000     0          
O        O      0.077250000000     0.399450000000     0.535200000000     0          
O        O      0.308800000000     0.073600000000     0.532150000000     0          
O        O      0.250000000000     0.125800000000     0.500000000000     0          
O        O      0.353200000000     0.055900000000     0.712700000000     0          
O        O      0.331700000000     0.000000000000     0.518825000000     0          
O        O      0.227550000000     0.120550000000     0.660750000000     0          
O        O      0.463650000000     0.425750000000     0.597250000000     0          
O        O      0.109150000000     0.052550000000     0.702075000000     0          
O        O      0.108100000000     0.066300000000     0.612975000000     0          
O        O      0.099350000000     0.125150000000     0.670525000000     0          
O        O      0.422750000000     0.399450000000     0.714800000000     0          
O        O      0.191200000000     0.073600000000     0.717850000000     0          
O        O      0.146800000000     0.055900000000     0.537300000000     0          
O        O      0.168300000000     0.000000000000     0.731175000000     0          
O        O      0.227550000000     0.379450000000     0.660750000000     0          
O        O      0.463650000000     0.074250000000     0.597250000000     0          
O        O      0.109150000000     0.447450000000     0.702075000000     0          
O        O      0.108100000000     0.433700000000     0.612975000000     0          
O        O      0.099350000000     0.374850000000     0.670525000000     0          
O        O      0.422750000000     0.100550000000     0.714800000000     0          
O        O      0.191200000000     0.426400000000     0.717850000000     0          
O        O      0.250000000000     0.374200000000     0.500000000000     0          
O        O      0.146800000000     0.444100000000     0.537300000000     0          
O        O      0.272450000000     0.379450000000     0.589250000000     0          
O        O      0.036350000000     0.074250000000     0.652750000000     0          
O        O      0.390850000000     0.447450000000     0.547925000000     0          
O        O      0.391900000000     0.433700000000     0.637025000000     0          
O        O      0.400650000000     0.374850000000     0.579475000000     0          
O        O      0.077250000000     0.100550000000     0.535200000000     0          
O        O      0.308800000000     0.426400000000     0.532150000000     0          
O        O      0.353200000000     0.444100000000     0.712700000000     0          
O        O      0.022450000000     0.370550000000     0.839250000000     0          
O        O      0.286350000000     0.175750000000     0.902750000000     0          
O        O      0.140850000000     0.302550000000     0.797925000000     0          
O        O      0.141900000000     0.316300000000     0.887025000000     0          
O        O      0.150650000000     0.375150000000     0.829475000000     0          
O        O      0.327250000000     0.149450000000     0.785200000000     0          
O        O      0.058800000000     0.323600000000     0.782150000000     0          
O        O      0.000000000000     0.375800000000     0.750000000000     0          
O        O      0.103200000000     0.305900000000     0.962700000000     0          
O        O      0.081700000000     0.250000000000     0.768825000000     0          
O        O      0.477550000000     0.370550000000     0.910750000000     0          
O        O      0.213650000000     0.175750000000     0.847250000000     0          
O        O      0.359150000000     0.302550000000     0.952075000000     0          
O        O      0.358100000000     0.316300000000     0.862975000000     0          
O        O      0.349350000000     0.375150000000     0.920525000000     0          
O        O      0.172750000000     0.149450000000     0.964800000000     0          
O        O      0.441200000000     0.323600000000     0.967850000000     0          
O        O      0.396800000000     0.305900000000     0.787300000000     0          
O        O      0.418300000000     0.250000000000     0.981175000000     0          
O        O      0.477550000000     0.129450000000     0.910750000000     0          
O        O      0.213650000000     0.324250000000     0.847250000000     0          
O        O      0.359150000000     0.197450000000     0.952075000000     0          
O        O      0.358100000000     0.183700000000     0.862975000000     0          
O        O      0.349350000000     0.124850000000     0.920525000000     0          
O        O      0.172750000000     0.350550000000     0.964800000000     0          
O        O      0.441200000000     0.176400000000     0.967850000000     0          
O        O      0.000000000000     0.124200000000     0.750000000000     0          
O        O      0.396800000000     0.194100000000     0.787300000000     0          
O        O      0.022450000000     0.129450000000     0.839250000000     0          
O        O      0.286350000000     0.324250000000     0.902750000000     0          
O        O      0.140850000000     0.197450000000     0.797925000000     0          
O        O      0.141900000000     0.183700000000     0.887025000000     0          
O        O      0.150650000000     0.124850000000     0.829475000000     0          
O        O      0.327250000000     0.350550000000     0.785200000000     0          
O        O      0.058800000000     0.176400000000     0.782150000000     0          
O        O      0.103200000000     0.194100000000     0.962700000000     0          
O        O      0.272450000000     0.120550000000     0.839250000000     0          
O        O      0.036350000000     0.425750000000     0.902750000000     0          
O        O      0.390850000000     0.052550000000     0.797925000000     0          
O        O      0.391900000000     0.066300000000     0.887025000000     0          
O        O      0.400650000000     0.125150000000     0.829475000000     0          
O        O      0.077250000000     0.399450000000     0.785200000000     0          
O        O      0.308800000000     0.073600000000     0.782150000000     0          
O        O      0.250000000000     0.125800000000     0.750000000000     0          
O        O      0.353200000000     0.055900000000     0.962700000000     0          
O        O      0.331700000000     0.000000000000     0.768825000000     0          
O        O      0.227550000000     0.120550000000     0.910750000000     0          
O        O      0.463650000000     0.425750000000     0.847250000000     0          
O        O      0.109150000000     0.052550000000     0.952075000000     0          
O        O      0.108100000000     0.066300000000     0.862975000000     0          
O        O      0.099350000000     0.125150000000     0.920525000000     0          
O        O      0.422750000000     0.399450000000     0.964800000000     0          
O        O      0.191200000000     0.073600000000     0.967850000000     0          
O        O      0.146800000000     0.055900000000     0.787300000000     0          
O        O      0.168300000000     0.000000000000     0.981175000000     0          
O        O      0.227550000000     0.379450000000     0.910750000000     0          
O        O      0.463650000000     0.074250000000     0.847250000000     0          
O        O      0.109150000000     0.447450000000     0.952075000000     0          
O        O      0.108100000000     0.433700000000     0.862975000000     0          
O        O      0.099350000000     0.374850000000     0.920525000000     0          
O        O      0.422750000000     0.100550000000     0.964800000000     0          
O        O      0.191200000000     0.426400000000     0.967850000000     0          
O        O      0.250000000000     0.374200000000     0.750000000000     0          
O        O      0.146800000000     0.444100000000     0.787300000000     0          
O        O      0.272450000000     0.379450000000     0.839250000000     0          
O        O      0.036350000000     0.074250000000     0.902750000000     0          
O        O      0.390850000000     0.447450000000     0.797925000000     0          
O        O      0.391900000000     0.433700000000     0.887025000000     0          
O        O      0.400650000000     0.374850000000     0.829475000000     0          
O        O      0.077250000000     0.100550000000     0.785200000000     0          
O        O      0.308800000000     0.426400000000     0.782150000000     0          
O        O      0.353200000000     0.444100000000     0.962700000000     0          
O        O      0.022450000000     0.870550000000     0.089250000000     0          
O        O      0.286350000000     0.675750000000     0.152750000000     0          
O        O      0.140850000000     0.802550000000     0.047925000000     0          
O        O      0.141900000000     0.816300000000     0.137025000000     0          
O        O      0.150650000000     0.875150000000     0.079475000000     0          
O        O      0.327250000000     0.649450000000     0.035200000000     0          
O        O      0.058800000000     0.823600000000     0.032150000000     0          
O        O      0.000000000000     0.875800000000     0.000000000000     0          
O        O      0.103200000000     0.805900000000     0.212700000000     0          
O        O      0.081700000000     0.750000000000     0.018825000000     0          
O        O      0.477550000000     0.870550000000     0.160750000000     0          
O        O      0.213650000000     0.675750000000     0.097250000000     0          
O        O      0.359150000000     0.802550000000     0.202075000000     0          
O        O      0.358100000000     0.816300000000     0.112975000000     0          
O        O      0.349350000000     0.875150000000     0.170525000000     0          
O        O      0.172750000000     0.649450000000     0.214800000000     0          
O        O      0.441200000000     0.823600000000     0.217850000000     0          
O        O      0.396800000000     0.805900000000     0.037300000000     0          
O        O      0.418300000000     0.750000000000     0.231175000000     0          
O        O      0.477550000000     0.629450000000     0.160750000000     0          
O        O      0.213650000000     0.824250000000     0.097250000000     0          
O        O      0.359150000000     0.697450000000     0.202075000000     0          
O        O      0.358100000000     0.683700000000     0.112975000000     0          
O        O      0.349350000000     0.624850000000     0.170525000000     0          
O        O      0.172750000000     0.850550000000     0.214800000000     0          
O        O      0.441200000000     0.676400000000     0.217850000000     0          
O        O      0.000000000000     0.624200000000     0.000000000000     0          
O        O      0.396800000000     0.694100000000     0.037300000000     0          
O        O      0.022450000000     0.629450000000     0.089250000000     0          
O        O      0.286350000000     0.824250000000     0.152750000000     0          
O        O      0.140850000000     0.697450000000     0.047925000000     0          
O        O      0.141900000000     0.683700000000     0.137025000000     0          
O        O      0.150650000000     0.624850000000     0.079475000000     0          
O        O      0.327250000000     0.850550000000     0.035200000000     0          
O        O      0.058800000000     0.676400000000     0.032150000000     0          
O        O      0.103200000000     0.694100000000     0.212700000000     0          
O        O      0.272450000000     0.620550000000     0.089250000000     0          
O        O      0.036350000000     0.925750000000     0.152750000000     0          
O        O      0.390850000000     0.552550000000     0.047925000000     0          
O        O      0.391900000000     0.566300000000     0.137025000000     0          
O        O      0.400650000000     0.625150000000     0.079475000000     0          
O        O      0.077250000000     0.899450000000     0.035200000000     0          
O        O      0.308800000000     0.573600000000     0.032150000000     0          
O        O      0.250000000000     0.625800000000     0.000000000000     0          
O        O      0.353200000000     0.555900000000     0.212700000000     0          
O        O      0.331700000000     0.500000000000     0.018825000000     0          
O        O      0.227550000000     0.620550000000     0.160750000000     0          
O        O      0.463650000000     0.925750000000     0.097250000000     0          
O        O      0.109150000000     0.552550000000     0.202075000000     0          
O        O      0.108100000000     0.566300000000     0.112975000000     0          
O        O      0.099350000000     0.625150000000     0.170525000000     0          
O        O      0.422750000000     0.899450000000     0.214800000000     0          
O        O      0.191200000000     0.573600000000     0.217850000000     0          
O        O      0.146800000000     0.555900000000     0.037300000000     0          
O        O      0.168300000000     0.500000000000     0.231175000000     0          
O        O      0.227550000000     0.879450000000     0.160750000000     0          
O        O      0.463650000000     0.574250000000     0.097250000000     0          
O        O      0.109150000000     0.947450000000     0.202075000000     0          
O        O      0.108100000000     0.933700000000     0.112975000000     0          
O        O      0.099350000000     0.874850000000     0.170525000000     0          
O        O      0.422750000000     0.600550000000     0.214800000000     0          
O        O      0.191200000000     0.926400000000     0.217850000000     0          
O        O      0.250000000000     0.874200000000     0.000000000000     0          
O        O      0.146800000000     0.944100000000     0.037300000000     0          
O        O      0.272450000000     0.879450000000     0.089250000000     0          
O        O      0.036350000000     0.574250000000     0.152750000000     0          
O        O      0.390850000000     0.947450000000     0.047925000000     0          
O        O      0.391900000000     0.933700000000     0.137025000000     0          
O        O      0.400650000000     0.874850000000     0.079475000000     0          
O        O      0.077250000000     0.600550000000     0.035200000000     0          
O        O      0.308800000000     0.926400000000     0.032150000000     0          
O        O      0.353200000000     0.944100000000     0.212700000000     0          
O        O      0.022450000000     0.870550000000     0.339250000000     0          
O        O      0.286350000000     0.675750000000     0.402750000000     0          
O        O      0.140850000000     0.802550000000     0.297925000000     0          
O        O      0.141900000000     0.816300000000     0.387025000000     0          
O        O      0.150650000000     0.875150000000     0.329475000000     0          
O        O      0.327250000000     0.649450000000     0.285200000000     0          
O        O      0.058800000000     0.823600000000     0.282150000000     0          
O        O      0.000000000000     0.875800000000     0.250000000000     0          
O        O      0.103200000000     0.805900000000     0.462700000000     0          
O        O      0.081700000000     0.750000000000     0.268825000000     0          
O        O      0.477550000000     0.870550000000     0.410750000000     0          
O        O      0.213650000000     0.675750000000     0.347250000000     0          
O        O      0.359150000000     0.802550000000     0.452075000000     0          
O        O      0.358100000000     0.816300000000     0.362975000000     0          
O        O      0.349350000000     0.875150000000     0.420525000000     0          
O        O      0.172750000000     0.649450000000     0.464800000000     0          
O        O      0.441200000000     0.823600000000     0.467850000000     0          
O        O      0.396800000000     0.805900000000     0.287300000000     0          
O        O      0.418300000000     0.750000000000     0.481175000000     0          
O        O      0.477550000000     0.629450000000     0.410750000000     0          
O        O      0.213650000000     0.824250000000     0.347250000000     0          
O        O      0.359150000000     0.697450000000     0.452075000000     0          
O        O      0.358100000000     0.683700000000     0.362975000000     0          
O        O      0.349350000000     0.624850000000     0.420525000000     0          
O        O      0.172750000000     0.850550000000     0.464800000000     0          
O        O      0.441200000000     0.676400000000     0.467850000000     0          
O        O      0.000000000000     0.624200000000     0.250000000000     0          
O        O      0.396800000000     0.694100000000     0.287300000000     0          
O        O      0.022450000000     0.629450000000     0.339250000000     0          
O        O      0.286350000000     0.824250000000     0.402750000000     0          
O        O      0.140850000000     0.697450000000     0.297925000000     0          
O        O      0.141900000000     0.683700000000     0.387025000000     0          
O        O      0.150650000000     0.624850000000     0.329475000000     0          
O        O      0.327250000000     0.850550000000     0.285200000000     0          
O        O      0.058800000000     0.676400000000     0.282150000000     0          
O        O      0.103200000000     0.694100000000     0.462700000000     0          
O        O      0.272450000000     0.620550000000     0.339250000000     0          
O        O      0.036350000000     0.925750000000     0.402750000000     0          
O        O      0.390850000000     0.552550000000     0.297925000000     0          
O        O      0.391900000000     0.566300000000     0.387025000000     0          
O        O      0.400650000000     0.625150000000     0.329475000000     0          
O        O      0.077250000000     0.899450000000     0.285200000000     0          
O        O      0.308800000000     0.573600000000     0.282150000000     0          
O        O      0.250000000000     0.625800000000     0.250000000000     0          
O        O      0.353200000000     0.555900000000     0.462700000000     0          
O        O      0.331700000000     0.500000000000     0.268825000000     0          
O        O      0.227550000000     0.620550000000     0.410750000000     0          
O        O      0.463650000000     0.925750000000     0.347250000000     0          
O        O      0.109150000000     0.552550000000     0.452075000000     0          
O        O      0.108100000000     0.566300000000     0.362975000000     0          
O        O      0.099350000000     0.625150000000     0.420525000000     0          
O        O      0.422750000000     0.899450000000     0.464800000000     0          
O        O      0.191200000000     0.573600000000     0.467850000000     0          
O        O      0.146800000000     0.555900000000     0.287300000000     0          
O        O      0.168300000000     0.500000000000     0.481175000000     0          
O        O      0.227550000000     0.879450000000     0.410750000000     0          
O        O      0.463650000000     0.574250000000     0.347250000000     0          
O        O      0.109150000000     0.947450000000     0.452075000000     0          
O        O      0.108100000000     0.933700000000     0.362975000000     0          
O        O      0.099350000000     0.874850000000     0.420525000000     0          
O        O      0.422750000000     0.600550000000     0.464800000000     0          
O        O      0.191200000000     0.926400000000     0.467850000000     0          
O        O      0.250000000000     0.874200000000     0.250000000000     0          
O        O      0.146800000000     0.944100000000     0.287300000000     0          
O        O      0.272450000000     0.879450000000     0.339250000000     0          
O        O      0.036350000000     0.574250000000     0.402750000000     0          
O        O      0.390850000000     0.947450000000     0.297925000000     0          
O        O      0.391900000000     0.933700000000     0.387025000000     0          
O        O      0.400650000000     0.874850000000     0.329475000000     0          
O        O      0.077250000000     0.600550000000     0.285200000000     0          
O        O      0.308800000000     0.926400000000     0.282150000000     0          
O        O      0.353200000000     0.944100000000     0.462700000000     0          
O        O      0.022450000000     0.870550000000     0.589250000000     0          
O        O      0.286350000000     0.675750000000     0.652750000000     0          
O        O      0.140850000000     0.802550000000     0.547925000000     0          
O        O      0.141900000000     0.816300000000     0.637025000000     0          
O        O      0.150650000000     0.875150000000     0.579475000000     0          
O        O      0.327250000000     0.649450000000     0.535200000000     0          
O        O      0.058800000000     0.823600000000     0.532150000000     0          
O        O      0.000000000000     0.875800000000     0.500000000000     0          
O        O      0.103200000000     0.805900000000     0.712700000000     0          
O        O      0.081700000000     0.750000000000     0.518825000000     0          
O        O      0.477550000000     0.870550000000     0.660750000000     0          
O        O      0.213650000000     0.675750000000     0.597250000000     0          
O        O      0.359150000000     0.802550000000     0.702075000000     0          
O        O      0.358100000000     0.816300000000     0.612975000000     0          
O        O      0.349350000000     0.875150000000     0.670525000000     0          
O        O      0.172750000000     0.649450000000     0.714800000000     0          
O        O      0.441200000000     0.823600000000     0.717850000000     0          
O        O      0.396800000000     0.805900000000     0.537300000000     0          
O        O      0.418300000000     0.750000000000     0.731175000000     0          
O        O      0.477550000000     0.629450000000     0.660750000000     0          
O        O      0.213650000000     0.824250000000     0.597250000000     0          
O        O      0.359150000000     0.697450000000     0.702075000000     0          
O        O      0.358100000000     0.683700000000     0.612975000000     0          
O        O      0.349350000000     0.624850000000     0.670525000000     0          
O        O      0.172750000000     0.850550000000     0.714800000000     0          
O        O      0.441200000000     0.676400000000     0.717850000000     0          
O        O      0.000000000000     0.624200000000     0.500000000000     0          
O        O      0.396800000000     0.694100000000     0.537300000000     0          
O        O      0.022450000000     0.629450000000     0.589250000000     0          
O        O      0.286350000000     0.824250000000     0.652750000000     0          
O        O      0.140850000000     0.697450000000     0.547925000000     0          
O        O      0.141900000000     0.683700000000     0.637025000000     0          
O        O      0.150650000000     0.624850000000     0.579475000000     0          
O        O      0.327250000000     0.850550000000     0.535200000000     0          
O        O      0.058800000000     0.676400000000     0.532150000000     0          
O        O      0.103200000000     0.694100000000     0.712700000000     0          
O        O      0.272450000000     0.620550000000     0.589250000000     0          
O        O      0.036350000000     0.925750000000     0.652750000000     0          
O        O      0.390850000000     0.552550000000     0.547925000000     0          
O        O      0.391900000000     0.566300000000     0.637025000000     0          
O        O      0.400650000000     0.625150000000     0.579475000000     0          
O        O      0.077250000000     0.899450000000     0.535200000000     0          
O        O      0.308800000000     0.573600000000     0.532150000000     0          
O        O      0.250000000000     0.625800000000     0.500000000000     0          
O        O      0.353200000000     0.555900000000     0.712700000000     0          
O        O      0.331700000000     0.500000000000     0.518825000000     0          
O        O      0.227550000000     0.620550000000     0.660750000000     0          
O        O      0.463650000000     0.925750000000     0.597250000000     0          
O        O      0.109150000000     0.552550000000     0.702075000000     0          
O        O      0.108100000000     0.566300000000     0.612975000000     0          
O        O      0.099350000000     0.625150000000     0.670525000000     0          
O        O      0.422750000000     0.899450000000     0.714800000000     0          
O        O      0.191200000000     0.573600000000     0.717850000000     0          
O        O      0.146800000000     0.555900000000     0.537300000000     0          
O        O      0.168300000000     0.500000000000     0.731175000000     0          
O        O      0.227550000000     0.879450000000     0.660750000000     0          
O        O      0.463650000000     0.574250000000     0.597250000000     0          
O        O      0.109150000000     0.947450000000     0.702075000000     0          
O        O      0.108100000000     0.933700000000     0.612975000000     0          
O        O      0.099350000000     0.874850000000     0.670525000000     0          
O        O      0.422750000000     0.600550000000     0.714800000000     0          
O        O      0.191200000000     0.926400000000     0.717850000000     0          
O        O      0.250000000000     0.874200000000     0.500000000000     0          
O        O      0.146800000000     0.944100000000     0.537300000000     0          
O        O      0.272450000000     0.879450000000     0.589250000000     0          
O        O      0.036350000000     0.574250000000     0.652750000000     0          
O        O      0.390850000000     0.947450000000     0.547925000000     0          
O        O      0.391900000000     0.933700000000     0.637025000000     0          
O        O      0.400650000000     0.874850000000     0.579475000000     0          
O        O      0.077250000000     0.600550000000     0.535200000000     0          
O        O      0.308800000000     0.926400000000     0.532150000000     0          
O        O      0.353200000000     0.944100000000     0.712700000000     0          
O        O      0.022450000000     0.870550000000     0.839250000000     0          
O        O      0.286350000000     0.675750000000     0.902750000000     0          
O        O      0.140850000000     0.802550000000     0.797925000000     0          
O        O      0.141900000000     0.816300000000     0.887025000000     0          
O        O      0.150650000000     0.875150000000     0.829475000000     0          
O        O      0.327250000000     0.649450000000     0.785200000000     0          
O        O      0.058800000000     0.823600000000     0.782150000000     0          
O        O      0.000000000000     0.875800000000     0.750000000000     0          
O        O      0.103200000000     0.805900000000     0.962700000000     0          
O        O      0.081700000000     0.750000000000     0.768825000000     0          
O        O      0.477550000000     0.870550000000     0.910750000000     0          
O        O      0.213650000000     0.675750000000     0.847250000000     0          
O        O      0.359150000000     0.802550000000     0.952075000000     0          
O        O      0.358100000000     0.816300000000     0.862975000000     0          
O        O      0.349350000000     0.875150000000     0.920525000000     0          
O        O      0.172750000000     0.649450000000     0.964800000000     0          
O        O      0.441200000000     0.823600000000     0.967850000000     0          
O        O      0.396800000000     0.805900000000     0.787300000000     0          
O        O      0.418300000000     0.750000000000     0.981175000000     0          
O        O      0.477550000000     0.629450000000     0.910750000000     0          
O        O      0.213650000000     0.824250000000     0.847250000000     0          
O        O      0.359150000000     0.697450000000     0.952075000000     0          
O        O      0.358100000000     0.683700000000     0.862975000000     0          
O        O      0.349350000000     0.624850000000     0.920525000000     0          
O        O      0.172750000000     0.850550000000     0.964800000000     0          
O        O      0.441200000000     0.676400000000     0.967850000000     0          
O        O      0.000000000000     0.624200000000     0.750000000000     0          
O        O      0.396800000000     0.694100000000     0.787300000000     0          
O        O      0.022450000000     0.629450000000     0.839250000000     0          
O        O      0.286350000000     0.824250000000     0.902750000000     0          
O        O      0.140850000000     0.697450000000     0.797925000000     0          
O        O      0.141900000000     0.683700000000     0.887025000000     0          
O        O      0.150650000000     0.624850000000     0.829475000000     0          
O        O      0.327250000000     0.850550000000     0.785200000000     0          
O        O      0.058800000000     0.676400000000     0.782150000000     0          
O        O      0.103200000000     0.694100000000     0.962700000000     0          
O        O      0.272450000000     0.620550000000     0.839250000000     0          
O        O      0.036350000000     0.925750000000     0.902750000000     0          
O        O      0.390850000000     0.552550000000     0.797925000000     0          
O        O      0.391900000000     0.566300000000     0.887025000000     0          
O        O      0.400650000000     0.625150000000     0.829475000000     0          
O        O      0.077250000000     0.899450000000     0.785200000000     0          
O        O      0.308800000000     0.573600000000     0.782150000000     0          
O        O      0.250000000000     0.625800000000     0.750000000000     0          
O        O      0.353200000000     0.555900000000     0.962700000000     0          
O        O      0.331700000000     0.500000000000     0.768825000000     0          
O        O      0.227550000000     0.620550000000     0.910750000000     0          
O        O      0.463650000000     0.925750000000     0.847250000000     0          
O        O      0.109150000000     0.552550000000     0.952075000000     0          
O        O      0.108100000000     0.566300000000     0.862975000000     0          
O        O      0.099350000000     0.625150000000     0.920525000000     0          
O        O      0.422750000000     0.899450000000     0.964800000000     0          
O        O      0.191200000000     0.573600000000     0.967850000000     0          
O        O      0.146800000000     0.555900000000     0.787300000000     0          
O        O      0.168300000000     0.500000000000     0.981175000000     0          
O        O      0.227550000000     0.879450000000     0.910750000000     0          
O        O      0.463650000000     0.574250000000     0.847250000000     0          
O        O      0.109150000000     0.947450000000     0.952075000000     0          
O        O      0.108100000000     0.933700000000     0.862975000000     0          
O        O      0.099350000000     0.874850000000     0.920525000000     0          
O        O      0.422750000000     0.600550000000     0.964800000000     0          
O        O      0.191200000000     0.926400000000     0.967850000000     0          
O        O      0.250000000000     0.874200000000     0.750000000000     0          
O        O      0.146800000000     0.944100000000     0.787300000000     0          
O        O      0.272450000000     0.879450000000     0.839250000000     0          
O        O      0.036350000000     0.574250000000     0.902750000000     0          
O        O      0.390850000000     0.947450000000     0.797925000000     0          
O        O      0.391900000000     0.933700000000     0.887025000000     0          
O        O      0.400650000000     0.874850000000     0.829475000000     0          
O        O      0.077250000000     0.600550000000     0.785200000000     0          
O        O      0.308800000000     0.926400000000     0.782150000000     0          
O        O      0.353200000000     0.944100000000     0.962700000000     0          
O        O      0.522450000000     0.370550000000     0.089250000000     0          
O        O      0.786350000000     0.175750000000     0.152750000000     0          
O        O      0.640850000000     0.302550000000     0.047925000000     0          
O        O      0.641900000000     0.316300000000     0.137025000000     0          
O        O      0.650650000000     0.375150000000     0.079475000000     0          
O        O      0.827250000000     0.149450000000     0.035200000000     0          
O        O      0.558800000000     0.323600000000     0.032150000000     0          
O        O      0.500000000000     0.375800000000     0.000000000000     0          
O        O      0.603200000000     0.305900000000     0.212700000000     0          
O        O      0.581700000000     0.250000000000     0.018825000000     0          
O        O      0.977550000000     0.370550000000     0.160750000000     0          
O        O      0.713650000000     0.175750000000     0.097250000000     0          
O        O      0.859150000000     0.302550000000     0.202075000000     0          
O        O      0.858100000000     0.316300000000     0.112975000000     0          
O        O      0.849350000000     0.375150000000     0.170525000000     0          
O        O      0.672750000000     0.149450000000     0.214800000000     0          
O        O      0.941200000000     0.323600000000     0.217850000000     0          
O        O      0.896800000000     0.305900000000     0.037300000000     0          
O        O      0.918300000000     0.250000000000     0.231175000000     0          
O        O      0.977550000000     0.129450000000     0.160750000000     0          
O        O      0.713650000000     0.324250000000     0.097250000000     0          
O        O      0.859150000000     0.197450000000     0.202075000000     0          
O        O      0.858100000000     0.183700000000     0.112975000000     0          
O        O      0.849350000000     0.124850000000     0.170525000000     0          
O        O      0.672750000000     0.350550000000     0.214800000000     0          
O        O      0.941200000000     0.176400000000     0.217850000000     0          
O        O      0.500000000000     0.124200000000     0.000000000000     0          
O        O      0.896800000000     0.194100000000     0.037300000000     0          
O        O      0.522450000000     0.129450000000     0.089250000000     0          
O        O      0.786350000000     0.324250000000     0.152750000000     0          
O        O      0.640850000000     0.197450000000     0.047925000000     0          
O        O      0.641900000000     0.183700000000     0.137025000000     0          
O        O      0.650650000000     0.124850000000     0.079475000000     0          
O        O      0.827250000000     0.350550000000     0.035200000000     0          
O        O      0.558800000000     0.176400000000     0.032150000000     0          
O        O      0.603200000000     0.194100000000     0.212700000000     0          
O        O      0.772450000000     0.120550000000     0.089250000000     0          
O        O      0.536350000000     0.425750000000     0.152750000000     0          
O        O      0.890850000000     0.052550000000     0.047925000000     0          
O        O      0.891900000000     0.066300000000     0.137025000000     0          
O        O      0.900650000000     0.125150000000     0.079475000000     0          
O        O      0.577250000000     0.399450000000     0.035200000000     0          
O        O      0.808800000000     0.073600000000     0.032150000000     0          
O        O      0.750000000000     0.125800000000     0.000000000000     0          
O        O      0.853200000000     0.055900000000     0.212700000000     0          
O        O      0.831700000000     0.000000000000     0.018825000000     0          
O        O      0.727550000000     0.120550000000     0.160750000000     0          
O        O      0.963650000000     0.425750000000     0.097250000000     0          
O        O      0.609150000000     0.052550000000     0.202075000000     0          
O        O      0.608100000000     0.066300000000     0.112975000000     0          
O        O      0.599350000000     0.125150000000     0.170525000000     0          
O        O      0.922750000000     0.399450000000     0.214800000000     0          
O        O      0.691200000000     0.073600000000     0.217850000000     0          
O        O      0.646800000000     0.055900000000     0.037300000000     0          
O        O      0.668300000000     0.000000000000     0.231175000000     0          
O        O      0.727550000000     0.379450000000     0.160750000000     0          
O        O      0.963650000000     0.074250000000     0.097250000000     0          
O        O      0.609150000000     0.447450000000     0.202075000000     0          
O        O      0.608100000000     0.433700000000     0.112975000000     0          
O        O      0.599350000000     0.374850000000     0.170525000000     0          
O        O      0.922750000000     0.100550000000     0.214800000000     0          
O        O      0.691200000000     0.426400000000     0.217850000000     0          
O        O      0.750000000000     0.374200000000     0.000000000000     0          
O        O      0.646800000000     0.444100000000     0.037300000000     0          
O        O      0.772450000000     0.379450000000     0.089250000000     0          
O        O      0.536350000000     0.074250000000     0.152750000000     0          
O        O      0.890850000000     0.447450000000     0.047925000000     0          
O        O      0.891900000000     0.433700000000     0.137025000000     0          
O        O      0.900650000000     0.374850000000     0.079475000000     0          
O        O      0.577250000000     0.100550000000     0.035200000000     0          
O        O      0.808800000000     0.426400000000     0.032150000000     0          
O        O      0.853200000000     0.444100000000     0.212700000000     0          
O        O      0.522450000000     0.370550000000     0.339250000000     0          
O        O      0.786350000000     0.175750000000     0.402750000000     0          
O        O      0.640850000000     0.302550000000     0.297925000000     0          
O        O      0.641900000000     0.316300000000     0.387025000000     0          
O        O      0.650650000000     0.375150000000     0.329475000000     0          
O        O      0.827250000000     0.149450000000     0.285200000000     0          
O        O      0.558800000000     0.323600000000     0.282150000000     0          
O        O      0.500000000000     0.375800000000     0.250000000000     0          
O        O      0.603200000000     0.305900000000     0.462700000000     0          
O        O      0.581700000000     0.250000000000     0.268825000000     0          
O        O      0.977550000000     0.370550000000     0.410750000000     0          
O        O      0.713650000000     0.175750000000     0.347250000000     0          
O        O      0.859150000000     0.302550000000     0.452075000000     0          
O        O      0.858100000000     0.316300000000     0.362975000000     0          
O        O      0.849350000000     0.375150000000     0.420525000000     0          
O        O      0.672750000000     0.149450000000     0.464800000000     0          
O        O      0.941200000000     0.323600000000     0.467850000000     0          
O        O      0.896800000000     0.305900000000     0.287300000000     0          
O        O      0.918300000000     0.250000000000     0.481175000000     0          
O        O      0.977550000000     0.129450000000     0.410750000000     0          
O        O      0.713650000000     0.324250000000     0.347250000000     0          
O        O      0.859150000000     0.197450000000     0.452075000000     0          
O        O      0.858100000000     0.183700000000     0.362975000000     0          
O        O      0.849350000000     0.124850000000     0.420525000000     0          
O        O      0.672750000000     0.350550000000     0.464800000000     0          
O        O      0.941200000000     0.176400000000     0.467850000000     0          
O        O      0.500000000000     0.124200000000     0.250000000000     0          
O        O      0.896800000000     0.194100000000     0.287300000000     0          
O        O      0.522450000000     0.129450000000     0.339250000000     0          
O        O      0.786350000000     0.324250000000     0.402750000000     0          
O        O      0.640850000000     0.197450000000     0.297925000000     0          
O        O      0.641900000000     0.183700000000     0.387025000000     0          
O        O      0.650650000000     0.124850000000     0.329475000000     0          
O        O      0.827250000000     0.350550000000     0.285200000000     0          
O        O      0.558800000000     0.176400000000     0.282150000000     0          
O        O      0.603200000000     0.194100000000     0.462700000000     0          
O        O      0.772450000000     0.120550000000     0.339250000000     0          
O        O      0.536350000000     0.425750000000     0.402750000000     0          
O        O      0.890850000000     0.052550000000     0.297925000000     0          
O        O      0.891900000000     0.066300000000     0.387025000000     0          
O        O      0.900650000000     0.125150000000     0.329475000000     0          
O        O      0.577250000000     0.399450000000     0.285200000000     0          
O        O      0.808800000000     0.073600000000     0.282150000000     0          
O        O      0.750000000000     0.125800000000     0.250000000000     0          
O        O      0.853200000000     0.055900000000     0.462700000000     0          
O        O      0.831700000000     0.000000000000     0.268825000000     0          
O        O      0.727550000000     0.120550000000     0.410750000000     0          
O        O      0.963650000000     0.425750000000     0.347250000000     0          
O        O      0.609150000000     0.052550000000     0.452075000000     0          
O        O      0.608100000000     0.066300000000     0.362975000000     0          
O        O      0.599350000000     0.125150000000     0.420525000000     0          
O        O      0.922750000000     0.399450000000     0.464800000000     0          
O        O      0.691200000000     0.073600000000     0.467850000000     0          
O        O      0.646800000000     0.055900000000     0.287300000000     0          
O        O      0.668300000000     0.000000000000     0.481175000000     0          
O        O      0.727550000000     0.379450000000     0.410750000000     0          
O        O      0.963650000000     0.074250000000     0.347250000000     0          
O        O      0.609150000000     0.447450000000     0.452075000000     0          
O        O      0.608100000000     0.433700000000     0.362975000000     0          
O        O      0.599350000000     0.374850000000     0.420525000000     0          
O        O      0.922750000000     0.100550000000     0.464800000000     0          
O        O      0.691200000000     0.426400000000     0.467850000000     0          
O        O      0.750000000000     0.374200000000     0.250000000000     0          
O        O      0.646800000000     0.444100000000     0.287300000000     0          
O        O      0.772450000000     0.379450000000     0.339250000000     0          
O        O      0.536350000000     0.074250000000     0.402750000000     0          
O        O      0.890850000000     0.447450000000     0.297925000000     0          
O        O      0.891900000000     0.433700000000     0.387025000000     0          
O        O      0.900650000000     0.374850000000     0.329475000000     0          
O        O      0.577250000000     0.100550000000     0.285200000000     0          
O        O      0.808800000000     0.426400000000     0.282150000000     0          
O        O      0.853200000000     0.444100000000     0.462700000000     0          
O        O      0.522450000000     0.370550000000     0.589250000000     0          
O        O      0.786350000000     0.175750000000     0.652750000000     0          
O        O      0.640850000000     0.302550000000     0.547925000000     0          
O        O      0.641900000000     0.316300000000     0.637025000000     0          
O        O      0.650650000000     0.375150000000     0.579475000000     0          
O        O      0.827250000000     0.149450000000     0.535200000000     0          
O        O      0.558800000000     0.323600000000     0.532150000000     0          
O        O      0.500000000000     0.375800000000     0.500000000000     0          
O        O      0.603200000000     0.305900000000     0.712700000000     0          
O        O      0.581700000000     0.250000000000     0.518825000000     0          
O        O      0.977550000000     0.370550000000     0.660750000000     0          
O        O      0.713650000000     0.175750000000     0.597250000000     0          
O        O      0.859150000000     0.302550000000     0.702075000000     0          
O        O      0.858100000000     0.316300000000     0.612975000000     0          
O        O      0.849350000000     0.375150000000     0.670525000000     0          
O        O      0.672750000000     0.149450000000     0.714800000000     0          
O        O      0.941200000000     0.323600000000     0.717850000000     0          
O        O      0.896800000000     0.305900000000     0.537300000000     0          
O        O      0.918300000000     0.250000000000     0.731175000000     0          
O        O      0.977550000000     0.129450000000     0.660750000000     0          
O        O      0.713650000000     0.324250000000     0.597250000000     0          
O        O      0.859150000000     0.197450000000     0.702075000000     0          
O        O      0.858100000000     0.183700000000     0.612975000000     0          
O        O      0.849350000000     0.124850000000     0.670525000000     0          
O        O      0.672750000000     0.350550000000     0.714800000000     0          
O        O      0.941200000000     0.176400000000     0.717850000000     0          
O        O      0.500000000000     0.124200000000     0.500000000000     0          
O        O      0.896800000000     0.194100000000     0.537300000000     0          
O        O      0.522450000000     0.129450000000     0.589250000000     0          
O        O      0.786350000000     0.324250000000     0.652750000000     0          
O        O      0.640850000000     0.197450000000     0.547925000000     0          
O        O      0.641900000000     0.183700000000     0.637025000000     0          
O        O      0.650650000000     0.124850000000     0.579475000000     0          
O        O      0.827250000000     0.350550000000     0.535200000000     0          
O        O      0.558800000000     0.176400000000     0.532150000000     0          
O        O      0.603200000000     0.194100000000     0.712700000000     0          
O        O      0.772450000000     0.120550000000     0.589250000000     0          
O        O      0.536350000000     0.425750000000     0.652750000000     0          
O        O      0.890850000000     0.052550000000     0.547925000000     0          
O        O      0.891900000000     0.066300000000     0.637025000000     0          
O        O      0.900650000000     0.125150000000     0.579475000000     0          
O        O      0.577250000000     0.399450000000     0.535200000000     0          
O        O      0.808800000000     0.073600000000     0.532150000000     0          
O        O      0.750000000000     0.125800000000     0.500000000000     0          
O        O      0.853200000000     0.055900000000     0.712700000000     0          
O        O      0.831700000000     0.000000000000     0.518825000000     0          
O        O      0.727550000000     0.120550000000     0.660750000000     0          
O        O      0.963650000000     0.425750000000     0.597250000000     0          
O        O      0.609150000000     0.052550000000     0.702075000000     0          
O        O      0.608100000000     0.066300000000     0.612975000000     0          
O        O      0.599350000000     0.125150000000     0.670525000000     0          
O        O      0.922750000000     0.399450000000     0.714800000000     0          
O        O      0.691200000000     0.073600000000     0.717850000000     0          
O        O      0.646800000000     0.055900000000     0.537300000000     0          
O        O      0.668300000000     0.000000000000     0.731175000000     0          
O        O      0.727550000000     0.379450000000     0.660750000000     0          
O        O      0.963650000000     0.074250000000     0.597250000000     0          
O        O      0.609150000000     0.447450000000     0.702075000000     0          
O        O      0.608100000000     0.433700000000     0.612975000000     0          
O        O      0.599350000000     0.374850000000     0.670525000000     0          
O        O      0.922750000000     0.100550000000     0.714800000000     0          
O        O      0.691200000000     0.426400000000     0.717850000000     0          
O        O      0.750000000000     0.374200000000     0.500000000000     0          
O        O      0.646800000000     0.444100000000     0.537300000000     0          
O        O      0.772450000000     0.379450000000     0.589250000000     0          
O        O      0.536350000000     0.074250000000     0.652750000000     0          
O        O      0.890850000000     0.447450000000     0.547925000000     0          
O        O      0.891900000000     0.433700000000     0.637025000000     0          
O        O      0.900650000000     0.374850000000     0.579475000000     0          
O        O      0.577250000000     0.100550000000     0.535200000000     0          
O        O      0.808800000000     0.426400000000     0.532150000000     0          
O        O      0.853200000000     0.444100000000     0.712700000000     0          
O        O      0.522450000000     0.370550000000     0.839250000000     0          
O        O      0.786350000000     0.175750000000     0.902750000000     0          
O        O      0.640850000000     0.302550000000     0.797925000000     0          
O        O      0.641900000000     0.316300000000     0.887025000000     0          
O        O      0.650650000000     0.375150000000     0.829475000000     0          
O        O      0.827250000000     0.149450000000     0.785200000000     0          
O        O      0.558800000000     0.323600000000     0.782150000000     0          
O        O      0.500000000000     0.375800000000     0.750000000000     0          
O        O      0.603200000000     0.305900000000     0.962700000000     0          
O        O      0.581700000000     0.250000000000     0.768825000000     0          
O        O      0.977550000000     0.370550000000     0.910750000000     0          
O        O      0.713650000000     0.175750000000     0.847250000000     0          
O        O      0.859150000000     0.302550000000     0.952075000000     0          
O        O      0.858100000000     0.316300000000     0.862975000000     0          
O        O      0.849350000000     0.375150000000     0.920525000000     0          
O        O      0.672750000000     0.149450000000     0.964800000000     0          
O        O      0.941200000000     0.323600000000     0.967850000000     0          
O        O      0.896800000000     0.305900000000     0.787300000000     0          
O        O      0.918300000000     0.250000000000     0.981175000000     0          
O        O      0.977550000000     0.129450000000     0.910750000000     0          
O        O      0.713650000000     0.324250000000     0.847250000000     0          
O        O      0.859150000000     0.197450000000     0.952075000000     0          
O        O      0.858100000000     0.183700000000     0.862975000000     0          
O        O      0.849350000000     0.124850000000     0.920525000000     0          
O        O      0.672750000000     0.350550000000     0.964800000000     0          
O        O      0.941200000000     0.176400000000     0.967850000000     0          
O        O      0.500000000000     0.124200000000     0.750000000000     0          
O        O      0.896800000000     0.194100000000     0.787300000000     0          
O        O      0.522450000000     0.129450000000     0.839250000000     0          
O        O      0.786350000000     0.324250000000     0.902750000000     0          
O        O      0.640850000000     0.197450000000     0.797925000000     0          
O        O      0.641900000000     0.183700000000     0.887025000000     0          
O        O      0.650650000000     0.124850000000     0.829475000000     0          
O        O      0.827250000000     0.350550000000     0.785200000000     0          
O        O      0.558800000000     0.176400000000     0.782150000000     0          
O        O      0.603200000000     0.194100000000     0.962700000000     0          
O        O      0.772450000000     0.120550000000     0.839250000000     0          
O        O      0.536350000000     0.425750000000     0.902750000000     0          
O        O      0.890850000000     0.052550000000     0.797925000000     0          
O        O      0.891900000000     0.066300000000     0.887025000000     0          
O        O      0.900650000000     0.125150000000     0.829475000000     0          
O        O      0.577250000000     0.399450000000     0.785200000000     0          
O        O      0.808800000000     0.073600000000     0.782150000000     0          
O        O      0.750000000000     0.125800000000     0.750000000000     0          
O        O      0.853200000000     0.055900000000     0.962700000000     0          
O        O      0.831700000000     0.000000000000     0.768825000000     0          
O        O      0.727550000000     0.120550000000     0.910750000000     0          
O        O      0.963650000000     0.425750000000     0.847250000000     0          
O        O      0.609150000000     0.052550000000     0.952075000000     0          
O        O      0.608100000000     0.066300000000     0.862975000000     0          
O        O      0.599350000000     0.125150000000     0.920525000000     0          
O        O      0.922750000000     0.399450000000     0.964800000000     0          
O        O      0.691200000000     0.073600000000     0.967850000000     0          
O        O      0.646800000000     0.055900000000     0.787300000000     0          
O        O      0.668300000000     0.000000000000     0.981175000000     0          
O        O      0.727550000000     0.379450000000     0.910750000000     0          
O        O      0.963650000000     0.074250000000     0.847250000000     0          
O        O      0.609150000000     0.447450000000     0.952075000000     0          
O        O      0.608100000000     0.433700000000     0.862975000000     0          
O        O      0.599350000000     0.374850000000     0.920525000000     0          
O        O      0.922750000000     0.100550000000     0.964800000000     0          
O        O      0.691200000000     0.426400000000     0.967850000000     0          
O        O      0.750000000000     0.374200000000     0.750000000000     0          
O        O      0.646800000000     0.444100000000     0.787300000000     0          
O        O      0.772450000000     0.379450000000     0.839250000000     0          
O        O      0.536350000000     0.074250000000     0.902750000000     0          
O        O      0.890850000000     0.447450000000     0.797925000000     0          
O        O      0.891900000000     0.433700000000     0.887025000000     0          
O        O      0.900650000000     0.374850000000     0.829475000000     0          
O        O      0.577250000000     0.100550000000     0.785200000000     0          
O        O      0.808800000000     0.426400000000     0.782150000000     0          
O        O      0.853200000000     0.444100000000     0.962700000000     0          
O        O      0.522450000000     0.870550000000     0.089250000000     0          
O        O      0.786350000000     0.675750000000     0.152750000000     0          
O        O      0.640850000000     0.802550000000     0.047925000000     0          
O        O      0.641900000000     0.816300000000     0.137025000000     0          
O        O      0.650650000000     0.875150000000     0.079475000000     0          
O        O      0.827250000000     0.649450000000     0.035200000000     0          
O        O      0.558800000000     0.823600000000     0.032150000000     0          
O        O      0.500000000000     0.875800000000     0.000000000000     0          
O        O      0.603200000000     0.805900000000     0.212700000000     0          
O        O      0.581700000000     0.750000000000     0.018825000000     0          
O        O      0.977550000000     0.870550000000     0.160750000000     0          
O        O      0.713650000000     0.675750000000     0.097250000000     0          
O        O      0.859150000000     0.802550000000     0.202075000000     0          
O        O      0.858100000000     0.816300000000     0.112975000000     0          
O        O      0.849350000000     0.875150000000     0.170525000000     0          
O        O      0.672750000000     0.649450000000     0.214800000000     0          
O        O      0.941200000000     0.823600000000     0.217850000000     0          
O        O      0.896800000000     0.805900000000     0.037300000000     0          
O        O      0.918300000000     0.750000000000     0.231175000000     0          
O        O      0.977550000000     0.629450000000     0.160750000000     0          
O        O      0.713650000000     0.824250000000     0.097250000000     0          
O        O      0.859150000000     0.697450000000     0.202075000000     0          
O        O      0.858100000000     0.683700000000     0.112975000000     0          
O        O      0.849350000000     0.624850000000     0.170525000000     0          
O        O      0.672750000000     0.850550000000     0.214800000000     0          
O        O      0.941200000000     0.676400000000     0.217850000000     0          
O        O      0.500000000000     0.624200000000     0.000000000000     0          
O        O      0.896800000000     0.694100000000     0.037300000000     0          
O        O      0.522450000000     0.629450000000     0.089250000000     0          
O        O      0.786350000000     0.824250000000     0.152750000000     0          
O        O      0.640850000000     0.697450000000     0.047925000000     0          
O        O      0.641900000000     0.683700000000     0.137025000000     0          
O        O      0.650650000000     0.624850000000     0.079475000000     0          
O        O      0.827250000000     0.850550000000     0.035200000000     0          
O        O      0.558800000000     0.676400000000     0.032150000000     0          
O        O      0.603200000000     0.694100000000     0.212700000000     0          
O        O      0.772450000000     0.620550000000     0.089250000000     0          
O        O      0.536350000000     0.925750000000     0.152750000000     0          
O        O      0.890850000000     0.552550000000     0.047925000000     0          
O        O      0.891900000000     0.566300000000     0.137025000000     0          
O        O      0.900650000000     0.625150000000     0.079475000000     0          
O        O      0.577250000000     0.899450000000     0.035200000000     0          
O        O      0.808800000000     0.573600000000     0.032150000000     0          
O        O      0.750000000000     0.625800000000     0.000000000000     0          
O        O      0.853200000000     0.555900000000     0.212700000000     0          
O        O      0.831700000000     0.500000000000     0.018825000000     0          
O        O      0.727550000000     0.620550000000     0.160750000000     0          
O        O      0.963650000000     0.925750000000     0.097250000000     0          
O        O      0.609150000000     0.552550000000     0.202075000000     0          
O        O      0.608100000000     0.566300000000     0.112975000000     0          
O        O      0.599350000000     0.625150000000     0.170525000000     0          
O        O      0.922750000000     0.899450000000     0.214800000000     0          
O        O      0.691200000000     0.573600000000     0.217850000000     0          
O        O      0.646800000000     0.555900000000     0.037300000000     0          
O        O      0.668300000000     0.500000000000     0.231175000000     0          
O        O      0.727550000000     0.879450000000     0.160750000000     0          
O        O      0.963650000000     0.574250000000     0.097250000000     0          
O        O      0.609150000000     0.947450000000     0.202075000000     0          
O        O      0.608100000000     0.933700000000     0.112975000000     0          
O        O      0.599350000000     0.874850000000     0.170525000000     0          
O        O      0.922750000000     0.600550000000     0.214800000000     0          
O        O      0.691200000000     0.926400000000     0.217850000000     0          
O        O      0.750000000000     0.874200000000     0.000000000000     0          
O        O      0.646800000000     0.944100000000     0.037300000000     0          
O        O      0.772450000000     0.879450000000     0.089250000000     0          
O        O      0.536350000000     0.574250000000     0.152750000000     0          
O        O      0.890850000000     0.947450000000     0.047925000000     0          
O        O      0.891900000000     0.933700000000     0.137025000000     0          
O        O      0.900650000000     0.874850000000     0.079475000000     0          
O        O      0.577250000000     0.600550000000     0.035200000000     0          
O        O      0.808800000000     0.926400000000     0.032150000000     0          
O        O      0.853200000000     0.944100000000     0.212700000000     0          
O        O      0.522450000000     0.870550000000     0.339250000000     0          
O        O      0.786350000000     0.675750000000     0.402750000000     0          
O        O      0.640850000000     0.802550000000     0.297925000000     0          
O        O      0.641900000000     0.816300000000     0.387025000000     0          
O        O      0.650650000000     0.875150000000     0.329475000000     0          
O        O      0.827250000000     0.649450000000     0.285200000000     0          
O        O      0.558800000000     0.823600000000     0.282150000000     0          
O        O      0.500000000000     0.875800000000     0.250000000000     0          
O        O      0.603200000000     0.805900000000     0.462700000000     0          
O        O      0.581700000000     0.750000000000     0.268825000000     0          
O        O      0.977550000000     0.870550000000     0.410750000000     0          
O        O      0.713650000000     0.675750000000     0.347250000000     0          
O        O      0.859150000000     0.802550000000     0.452075000000     0          
O        O      0.858100000000     0.816300000000     0.362975000000     0          
O        O      0.849350000000     0.875150000000     0.420525000000     0          
O        O      0.672750000000     0.649450000000     0.464800000000     0          
O        O      0.941200000000     0.823600000000     0.467850000000     0          
O        O      0.896800000000     0.805900000000     0.287300000000     0          
O        O      0.918300000000     0.750000000000     0.481175000000     0          
O        O      0.977550000000     0.629450000000     0.410750000000     0          
O        O      0.713650000000     0.824250000000     0.347250000000     0          
O        O      0.859150000000     0.697450000000     0.452075000000     0          
O        O      0.858100000000     0.683700000000     0.362975000000     0          
O        O      0.849350000000     0.624850000000     0.420525000000     0          
O        O      0.672750000000     0.850550000000     0.464800000000     0          
O        O      0.941200000000     0.676400000000     0.467850000000     0          
O        O      0.500000000000     0.624200000000     0.250000000000     0          
O        O      0.896800000000     0.694100000000     0.287300000000     0          
O        O      0.522450000000     0.629450000000     0.339250000000     0          
O        O      0.786350000000     0.824250000000     0.402750000000     0          
O        O      0.640850000000     0.697450000000     0.297925000000     0          
O        O      0.641900000000     0.683700000000     0.387025000000     0          
O        O      0.650650000000     0.624850000000     0.329475000000     0          
O        O      0.827250000000     0.850550000000     0.285200000000     0          
O        O      0.558800000000     0.676400000000     0.282150000000     0          
O        O      0.603200000000     0.694100000000     0.462700000000     0          
O        O      0.772450000000     0.620550000000     0.339250000000     0          
O        O      0.536350000000     0.925750000000     0.402750000000     0          
O        O      0.890850000000     0.552550000000     0.297925000000     0          
O        O      0.891900000000     0.566300000000     0.387025000000     0          
O        O      0.900650000000     0.625150000000     0.329475000000     0          
O        O      0.577250000000     0.899450000000     0.285200000000     0          
O        O      0.808800000000     0.573600000000     0.282150000000     0          
O        O      0.750000000000     0.625800000000     0.250000000000     0          
O        O      0.853200000000     0.555900000000     0.462700000000     0          
O        O      0.831700000000     0.500000000000     0.268825000000     0          
O        O      0.727550000000     0.620550000000     0.410750000000     0          
O        O      0.963650000000     0.925750000000     0.347250000000     0          
O        O      0.609150000000     0.552550000000     0.452075000000     0          
O        O      0.608100000000     0.566300000000     0.362975000000     0          
O        O      0.599350000000     0.625150000000     0.420525000000     0          
O        O      0.922750000000     0.899450000000     0.464800000000     0          
O        O      0.691200000000     0.573600000000     0.467850000000     0          
O        O      0.646800000000     0.555900000000     0.287300000000     0          
O        O      0.668300000000     0.500000000000     0.481175000000     0          
O        O      0.727550000000     0.879450000000     0.410750000000     0          
O        O      0.963650000000     0.574250000000     0.347250000000     0          
O        O      0.609150000000     0.947450000000     0.452075000000     0          
O        O      0.608100000000     0.933700000000     0.362975000000     0          
O        O      0.599350000000     0.874850000000     0.420525000000     0          
O        O      0.922750000000     0.600550000000     0.464800000000     0          
O        O      0.691200000000     0.926400000000     0.467850000000     0          
O        O      0.750000000000     0.874200000000     0.250000000000     0          
O        O      0.646800000000     0.944100000000     0.287300000000     0          
O        O      0.772450000000     0.879450000000     0.339250000000     0          
O        O      0.536350000000     0.574250000000     0.402750000000     0          
O        O      0.890850000000     0.947450000000     0.297925000000     0          
O        O      0.891900000000     0.933700000000     0.387025000000     0          
O        O      0.900650000000     0.874850000000     0.329475000000     0          
O        O      0.577250000000     0.600550000000     0.285200000000     0          
O        O      0.808800000000     0.926400000000     0.282150000000     0          
O        O      0.853200000000     0.944100000000     0.462700000000     0          
O        O      0.522450000000     0.870550000000     0.589250000000     0          
O        O      0.786350000000     0.675750000000     0.652750000000     0          
O        O      0.640850000000     0.802550000000     0.547925000000     0          
O        O      0.641900000000     0.816300000000     0.637025000000     0          
O        O      0.650650000000     0.875150000000     0.579475000000     0          
O        O      0.827250000000     0.649450000000     0.535200000000     0          
O        O      0.558800000000     0.823600000000     0.532150000000     0          
O        O      0.500000000000     0.875800000000     0.500000000000     0          
O        O      0.603200000000     0.805900000000     0.712700000000     0          
O        O      0.581700000000     0.750000000000     0.518825000000     0          
O        O      0.977550000000     0.870550000000     0.660750000000     0          
O        O      0.713650000000     0.675750000000     0.597250000000     0          
O        O      0.859150000000     0.802550000000     0.702075000000     0          
O        O      0.858100000000     0.816300000000     0.612975000000     0          
O        O      0.849350000000     0.875150000000     0.670525000000     0          
O        O      0.672750000000     0.649450000000     0.714800000000     0          
O        O      0.941200000000     0.823600000000     0.717850000000     0          
O        O      0.896800000000     0.805900000000     0.537300000000     0          
O        O      0.918300000000     0.750000000000     0.731175000000     0          
O        O      0.977550000000     0.629450000000     0.660750000000     0          
O        O      0.713650000000     0.824250000000     0.597250000000     0          
O        O      0.859150000000     0.697450000000     0.702075000000     0          
O        O      0.858100000000     0.683700000000     0.612975000000     0          
O        O      0.849350000000     0.624850000000     0.670525000000     0          
O        O      0.672750000000     0.850550000000     0.714800000000     0          
O        O      0.941200000000     0.676400000000     0.717850000000     0          
O        O      0.500000000000     0.624200000000     0.500000000000     0          
O        O      0.896800000000     0.694100000000     0.537300000000     0          
O        O      0.522450000000     0.629450000000     0.589250000000     0          
O        O      0.786350000000     0.824250000000     0.652750000000     0          
O        O      0.640850000000     0.697450000000     0.547925000000     0          
O        O      0.641900000000     0.683700000000     0.637025000000     0          
O        O      0.650650000000     0.624850000000     0.579475000000     0          
O        O      0.827250000000     0.850550000000     0.535200000000     0          
O        O      0.558800000000     0.676400000000     0.532150000000     0          
O        O      0.603200000000     0.694100000000     0.712700000000     0          
O        O      0.772450000000     0.620550000000     0.589250000000     0          
O        O      0.536350000000     0.925750000000     0.652750000000     0          
O        O      0.890850000000     0.552550000000     0.547925000000     0          
O        O      0.891900000000     0.566300000000     0.637025000000     0          
O        O      0.900650000000     0.625150000000     0.579475000000     0          
O        O      0.577250000000     0.899450000000     0.535200000000     0          
O        O      0.808800000000     0.573600000000     0.532150000000     0          
O        O      0.750000000000     0.625800000000     0.500000000000     0          
O        O      0.853200000000     0.555900000000     0.712700000000     0          
O        O      0.831700000000     0.500000000000     0.518825000000     0          
O        O      0.727550000000     0.620550000000     0.660750000000     0          
O        O      0.963650000000     0.925750000000     0.597250000000     0          
O        O      0.609150000000     0.552550000000     0.702075000000     0          
O        O      0.608100000000     0.566300000000     0.612975000000     0          
O        O      0.599350000000     0.625150000000     0.670525000000     0          
O        O      0.922750000000     0.899450000000     0.714800000000     0          
O        O      0.691200000000     0.573600000000     0.717850000000     0          
O        O      0.646800000000     0.555900000000     0.537300000000     0          
O        O      0.668300000000     0.500000000000     0.731175000000     0          
O        O      0.727550000000     0.879450000000     0.660750000000     0          
O        O      0.963650000000     0.574250000000     0.597250000000     0          
O        O      0.609150000000     0.947450000000     0.702075000000     0          
O        O      0.608100000000     0.933700000000     0.612975000000     0          
O        O      0.599350000000     0.874850000000     0.670525000000     0          
O        O      0.922750000000     0.600550000000     0.714800000000     0          
O        O      0.691200000000     0.926400000000     0.717850000000     0          
O        O      0.750000000000     0.874200000000     0.500000000000     0          
O        O      0.646800000000     0.944100000000     0.537300000000     0          
O        O      0.772450000000     0.879450000000     0.589250000000     0          
O        O      0.536350000000     0.574250000000     0.652750000000     0          
O        O      0.890850000000     0.947450000000     0.547925000000     0          
O        O      0.891900000000     0.933700000000     0.637025000000     0          
O        O      0.900650000000     0.874850000000     0.579475000000     0          
O        O      0.577250000000     0.600550000000     0.535200000000     0          
O        O      0.808800000000     0.926400000000     0.532150000000     0          
O        O      0.853200000000     0.944100000000     0.712700000000     0          
O        O      0.522450000000     0.870550000000     0.839250000000     0          
O        O      0.786350000000     0.675750000000     0.902750000000     0          
O        O      0.640850000000     0.802550000000     0.797925000000     0          
O        O      0.641900000000     0.816300000000     0.887025000000     0          
O        O      0.650650000000     0.875150000000     0.829475000000     0          
O        O      0.827250000000     0.649450000000     0.785200000000     0          
O        O      0.558800000000     0.823600000000     0.782150000000     0          
O        O      0.500000000000     0.875800000000     0.750000000000     0          
O        O      0.603200000000     0.805900000000     0.962700000000     0          
O        O      0.581700000000     0.750000000000     0.768825000000     0          
O        O      0.977550000000     0.870550000000     0.910750000000     0          
O        O      0.713650000000     0.675750000000     0.847250000000     0          
O        O      0.859150000000     0.802550000000     0.952075000000     0          
O        O      0.858100000000     0.816300000000     0.862975000000     0          
O        O      0.849350000000     0.875150000000     0.920525000000     0          
O        O      0.672750000000     0.649450000000     0.964800000000     0          
O        O      0.941200000000     0.823600000000     0.967850000000     0          
O        O      0.896800000000     0.805900000000     0.787300000000     0          
O        O      0.918300000000     0.750000000000     0.981175000000     0          
O        O      0.977550000000     0.629450000000     0.910750000000     0          
O        O      0.713650000000     0.824250000000     0.847250000000     0          
O        O      0.859150000000     0.697450000000     0.952075000000     0          
O        O      0.858100000000     0.683700000000     0.862975000000     0          
O        O      0.849350000000     0.624850000000     0.920525000000     0          
O        O      0.672750000000     0.850550000000     0.964800000000     0          
O        O      0.941200000000     0.676400000000     0.967850000000     0          
O        O      0.500000000000     0.624200000000     0.750000000000     0          
O        O      0.896800000000     0.694100000000     0.787300000000     0          
O        O      0.522450000000     0.629450000000     0.839250000000     0          
O        O      0.786350000000     0.824250000000     0.902750000000     0          
O        O      0.640850000000     0.697450000000     0.797925000000     0          
O        O      0.641900000000     0.683700000000     0.887025000000     0          
O        O      0.650650000000     0.624850000000     0.829475000000     0          
O        O      0.827250000000     0.850550000000     0.785200000000     0          
O        O      0.558800000000     0.676400000000     0.782150000000     0          
O        O      0.603200000000     0.694100000000     0.962700000000     0          
O        O      0.772450000000     0.620550000000     0.839250000000     0          
O        O      0.536350000000     0.925750000000     0.902750000000     0          
O        O      0.890850000000     0.552550000000     0.797925000000     0          
O        O      0.891900000000     0.566300000000     0.887025000000     0          
O        O      0.900650000000     0.625150000000     0.829475000000     0          
O        O      0.577250000000     0.899450000000     0.785200000000     0          
O        O      0.808800000000     0.573600000000     0.782150000000     0          
O        O      0.750000000000     0.625800000000     0.750000000000     0          
O        O      0.853200000000     0.555900000000     0.962700000000     0          
O        O      0.831700000000     0.500000000000     0.768825000000     0          
O        O      0.727550000000     0.620550000000     0.910750000000     0          
O        O      0.963650000000     0.925750000000     0.847250000000     0          
O        O      0.609150000000     0.552550000000     0.952075000000     0          
O        O      0.608100000000     0.566300000000     0.862975000000     0          
O        O      0.599350000000     0.625150000000     0.920525000000     0          
O        O      0.922750000000     0.899450000000     0.964800000000     0          
O        O      0.691200000000     0.573600000000     0.967850000000     0          
O        O      0.646800000000     0.555900000000     0.787300000000     0          
O        O      0.668300000000     0.500000000000     0.981175000000     0          
O        O      0.727550000000     0.879450000000     0.910750000000     0          
O        O      0.963650000000     0.574250000000     0.847250000000     0          
O        O      0.609150000000     0.947450000000     0.952075000000     0          
O        O      0.608100000000     0.933700000000     0.862975000000     0          
O        O      0.599350000000     0.874850000000     0.920525000000     0          
O        O      0.922750000000     0.600550000000     0.964800000000     0          
O        O      0.691200000000     0.926400000000     0.967850000000     0          
O        O      0.750000000000     0.874200000000     0.750000000000     0          
O        O      0.646800000000     0.944100000000     0.787300000000     0          
O        O      0.772450000000     0.879450000000     0.839250000000     0          
O        O      0.536350000000     0.574250000000     0.902750000000     0          
O        O      0.890850000000     0.947450000000     0.797925000000     0          
O        O      0.891900000000     0.933700000000     0.887025000000     0          
O        O      0.900650000000     0.874850000000     0.829475000000     0          
O        O      0.577250000000     0.600550000000     0.785200000000     0          
O        O      0.808800000000     0.926400000000     0.782150000000     0          
O        O      0.853200000000     0.944100000000     0.962700000000     0          


