data_zeolite

_audit_creation_method RASPA-1.0
_audit_creation_date 2021-6-7
_audit_author_name ''

_cell_length_a    11.454
_cell_length_b    21.695
_cell_length_c    7.227
_cell_angle_alpha 90
_cell_angle_beta  93.154
_cell_angle_gamma 90
_cell_volume      43035.6

_symmetry_cell_setting          monoclinic
_symmetry_space_group_name_Hall 'P 1'
_symmetry_space_group_name_H-M  'P 1'
_symmetry_Int_Tables_number     1

_symmetry_equiv_pos_as_xyz 'x,y,z'

loop_
_atom_site_label
_atom_site_type_symbol
_atom_site_fract_x
_atom_site_fract_y
_atom_site_fract_z
_atom_site_charge
T        Si     0.088100000000     0.494500000000     0.230125000000     0          
T        Si     0.050066666667     0.316200000000     0.020100000000     0          
T        Si     0.077766666667     0.339900000000     0.116250000000     0          
T        Si     0.129400000000     0.283450000000     0.145975000000     0          
T        Si     0.011666666667     0.341000000000     0.182050000000     0          
T        Si     0.011566666667     0.024000000000     0.191400000000     0          
T        Si     0.036400000000     0.033150000000     0.086825000000     0          
T        Si     0.122633333333     0.015750000000     0.070700000000     0          
T        Si     0.245233333333     0.244500000000     0.019875000000     0          
T        Si     0.283266666667     0.066200000000     0.229900000000     0          
T        Si     0.255566666667     0.089900000000     0.133750000000     0          
T        Si     0.203933333333     0.033450000000     0.104025000000     0          
T        Si     0.321666666667     0.091000000000     0.067950000000     0          
T        Si     0.321766666667     0.274000000000     0.058600000000     0          
T        Si     0.296933333333     0.283150000000     0.163175000000     0          
T        Si     0.210700000000     0.265750000000     0.179300000000     0          
T        Si     0.245233333333     0.005500000000     0.019875000000     0          
T        Si     0.283266666667     0.183800000000     0.229900000000     0          
T        Si     0.255566666667     0.160100000000     0.133750000000     0          
T        Si     0.203933333333     0.216550000000     0.104025000000     0          
T        Si     0.321666666667     0.159000000000     0.067950000000     0          
T        Si     0.321766666667     0.476000000000     0.058600000000     0          
T        Si     0.296933333333     0.466850000000     0.163175000000     0          
T        Si     0.210700000000     0.484250000000     0.179300000000     0          
T        Si     0.088100000000     0.255500000000     0.230125000000     0          
T        Si     0.050066666667     0.433800000000     0.020100000000     0          
T        Si     0.077766666667     0.410100000000     0.116250000000     0          
T        Si     0.129400000000     0.466550000000     0.145975000000     0          
T        Si     0.011666666667     0.409000000000     0.182050000000     0          
T        Si     0.011566666667     0.226000000000     0.191400000000     0          
T        Si     0.036400000000     0.216850000000     0.086825000000     0          
T        Si     0.122633333333     0.234250000000     0.070700000000     0          
T        Si     0.088100000000     0.494500000000     0.480125000000     0          
T        Si     0.050066666667     0.316200000000     0.270100000000     0          
T        Si     0.077766666667     0.339900000000     0.366250000000     0          
T        Si     0.129400000000     0.283450000000     0.395975000000     0          
T        Si     0.011666666667     0.341000000000     0.432050000000     0          
T        Si     0.011566666667     0.024000000000     0.441400000000     0          
T        Si     0.036400000000     0.033150000000     0.336825000000     0          
T        Si     0.122633333333     0.015750000000     0.320700000000     0          
T        Si     0.245233333333     0.244500000000     0.269875000000     0          
T        Si     0.283266666667     0.066200000000     0.479900000000     0          
T        Si     0.255566666667     0.089900000000     0.383750000000     0          
T        Si     0.203933333333     0.033450000000     0.354025000000     0          
T        Si     0.321666666667     0.091000000000     0.317950000000     0          
T        Si     0.321766666667     0.274000000000     0.308600000000     0          
T        Si     0.296933333333     0.283150000000     0.413175000000     0          
T        Si     0.210700000000     0.265750000000     0.429300000000     0          
T        Si     0.245233333333     0.005500000000     0.269875000000     0          
T        Si     0.283266666667     0.183800000000     0.479900000000     0          
T        Si     0.255566666667     0.160100000000     0.383750000000     0          
T        Si     0.203933333333     0.216550000000     0.354025000000     0          
T        Si     0.321666666667     0.159000000000     0.317950000000     0          
T        Si     0.321766666667     0.476000000000     0.308600000000     0          
T        Si     0.296933333333     0.466850000000     0.413175000000     0          
T        Si     0.210700000000     0.484250000000     0.429300000000     0          
T        Si     0.088100000000     0.255500000000     0.480125000000     0          
T        Si     0.050066666667     0.433800000000     0.270100000000     0          
T        Si     0.077766666667     0.410100000000     0.366250000000     0          
T        Si     0.129400000000     0.466550000000     0.395975000000     0          
T        Si     0.011666666667     0.409000000000     0.432050000000     0          
T        Si     0.011566666667     0.226000000000     0.441400000000     0          
T        Si     0.036400000000     0.216850000000     0.336825000000     0          
T        Si     0.122633333333     0.234250000000     0.320700000000     0          
T        Si     0.088100000000     0.494500000000     0.730125000000     0          
T        Si     0.050066666667     0.316200000000     0.520100000000     0          
T        Si     0.077766666667     0.339900000000     0.616250000000     0          
T        Si     0.129400000000     0.283450000000     0.645975000000     0          
T        Si     0.011666666667     0.341000000000     0.682050000000     0          
T        Si     0.011566666667     0.024000000000     0.691400000000     0          
T        Si     0.036400000000     0.033150000000     0.586825000000     0          
T        Si     0.122633333333     0.015750000000     0.570700000000     0          
T        Si     0.245233333333     0.244500000000     0.519875000000     0          
T        Si     0.283266666667     0.066200000000     0.729900000000     0          
T        Si     0.255566666667     0.089900000000     0.633750000000     0          
T        Si     0.203933333333     0.033450000000     0.604025000000     0          
T        Si     0.321666666667     0.091000000000     0.567950000000     0          
T        Si     0.321766666667     0.274000000000     0.558600000000     0          
T        Si     0.296933333333     0.283150000000     0.663175000000     0          
T        Si     0.210700000000     0.265750000000     0.679300000000     0          
T        Si     0.245233333333     0.005500000000     0.519875000000     0          
T        Si     0.283266666667     0.183800000000     0.729900000000     0          
T        Si     0.255566666667     0.160100000000     0.633750000000     0          
T        Si     0.203933333333     0.216550000000     0.604025000000     0          
T        Si     0.321666666667     0.159000000000     0.567950000000     0          
T        Si     0.321766666667     0.476000000000     0.558600000000     0          
T        Si     0.296933333333     0.466850000000     0.663175000000     0          
T        Si     0.210700000000     0.484250000000     0.679300000000     0          
T        Si     0.088100000000     0.255500000000     0.730125000000     0          
T        Si     0.050066666667     0.433800000000     0.520100000000     0          
T        Si     0.077766666667     0.410100000000     0.616250000000     0          
T        Si     0.129400000000     0.466550000000     0.645975000000     0          
T        Si     0.011666666667     0.409000000000     0.682050000000     0          
T        Si     0.011566666667     0.226000000000     0.691400000000     0          
T        Si     0.036400000000     0.216850000000     0.586825000000     0          
T        Si     0.122633333333     0.234250000000     0.570700000000     0          
T        Si     0.088100000000     0.494500000000     0.980125000000     0          
T        Si     0.050066666667     0.316200000000     0.770100000000     0          
T        Si     0.077766666667     0.339900000000     0.866250000000     0          
T        Si     0.129400000000     0.283450000000     0.895975000000     0          
T        Si     0.011666666667     0.341000000000     0.932050000000     0          
T        Si     0.011566666667     0.024000000000     0.941400000000     0          
T        Si     0.036400000000     0.033150000000     0.836825000000     0          
T        Si     0.122633333333     0.015750000000     0.820700000000     0          
T        Si     0.245233333333     0.244500000000     0.769875000000     0          
T        Si     0.283266666667     0.066200000000     0.979900000000     0          
T        Si     0.255566666667     0.089900000000     0.883750000000     0          
T        Si     0.203933333333     0.033450000000     0.854025000000     0          
T        Si     0.321666666667     0.091000000000     0.817950000000     0          
T        Si     0.321766666667     0.274000000000     0.808600000000     0          
T        Si     0.296933333333     0.283150000000     0.913175000000     0          
T        Si     0.210700000000     0.265750000000     0.929300000000     0          
T        Si     0.245233333333     0.005500000000     0.769875000000     0          
T        Si     0.283266666667     0.183800000000     0.979900000000     0          
T        Si     0.255566666667     0.160100000000     0.883750000000     0          
T        Si     0.203933333333     0.216550000000     0.854025000000     0          
T        Si     0.321666666667     0.159000000000     0.817950000000     0          
T        Si     0.321766666667     0.476000000000     0.808600000000     0          
T        Si     0.296933333333     0.466850000000     0.913175000000     0          
T        Si     0.210700000000     0.484250000000     0.929300000000     0          
T        Si     0.088100000000     0.255500000000     0.980125000000     0          
T        Si     0.050066666667     0.433800000000     0.770100000000     0          
T        Si     0.077766666667     0.410100000000     0.866250000000     0          
T        Si     0.129400000000     0.466550000000     0.895975000000     0          
T        Si     0.011666666667     0.409000000000     0.932050000000     0          
T        Si     0.011566666667     0.226000000000     0.941400000000     0          
T        Si     0.036400000000     0.216850000000     0.836825000000     0          
T        Si     0.122633333333     0.234250000000     0.820700000000     0          
T        Si     0.088100000000     0.994500000000     0.230125000000     0          
T        Si     0.050066666667     0.816200000000     0.020100000000     0          
T        Si     0.077766666667     0.839900000000     0.116250000000     0          
T        Si     0.129400000000     0.783450000000     0.145975000000     0          
T        Si     0.011666666667     0.841000000000     0.182050000000     0          
T        Si     0.011566666667     0.524000000000     0.191400000000     0          
T        Si     0.036400000000     0.533150000000     0.086825000000     0          
T        Si     0.122633333333     0.515750000000     0.070700000000     0          
T        Si     0.245233333333     0.744500000000     0.019875000000     0          
T        Si     0.283266666667     0.566200000000     0.229900000000     0          
T        Si     0.255566666667     0.589900000000     0.133750000000     0          
T        Si     0.203933333333     0.533450000000     0.104025000000     0          
T        Si     0.321666666667     0.591000000000     0.067950000000     0          
T        Si     0.321766666667     0.774000000000     0.058600000000     0          
T        Si     0.296933333333     0.783150000000     0.163175000000     0          
T        Si     0.210700000000     0.765750000000     0.179300000000     0          
T        Si     0.245233333333     0.505500000000     0.019875000000     0          
T        Si     0.283266666667     0.683800000000     0.229900000000     0          
T        Si     0.255566666667     0.660100000000     0.133750000000     0          
T        Si     0.203933333333     0.716550000000     0.104025000000     0          
T        Si     0.321666666667     0.659000000000     0.067950000000     0          
T        Si     0.321766666667     0.976000000000     0.058600000000     0          
T        Si     0.296933333333     0.966850000000     0.163175000000     0          
T        Si     0.210700000000     0.984250000000     0.179300000000     0          
T        Si     0.088100000000     0.755500000000     0.230125000000     0          
T        Si     0.050066666667     0.933800000000     0.020100000000     0          
T        Si     0.077766666667     0.910100000000     0.116250000000     0          
T        Si     0.129400000000     0.966550000000     0.145975000000     0          
T        Si     0.011666666667     0.909000000000     0.182050000000     0          
T        Si     0.011566666667     0.726000000000     0.191400000000     0          
T        Si     0.036400000000     0.716850000000     0.086825000000     0          
T        Si     0.122633333333     0.734250000000     0.070700000000     0          
T        Si     0.088100000000     0.994500000000     0.480125000000     0          
T        Si     0.050066666667     0.816200000000     0.270100000000     0          
T        Si     0.077766666667     0.839900000000     0.366250000000     0          
T        Si     0.129400000000     0.783450000000     0.395975000000     0          
T        Si     0.011666666667     0.841000000000     0.432050000000     0          
T        Si     0.011566666667     0.524000000000     0.441400000000     0          
T        Si     0.036400000000     0.533150000000     0.336825000000     0          
T        Si     0.122633333333     0.515750000000     0.320700000000     0          
T        Si     0.245233333333     0.744500000000     0.269875000000     0          
T        Si     0.283266666667     0.566200000000     0.479900000000     0          
T        Si     0.255566666667     0.589900000000     0.383750000000     0          
T        Si     0.203933333333     0.533450000000     0.354025000000     0          
T        Si     0.321666666667     0.591000000000     0.317950000000     0          
T        Si     0.321766666667     0.774000000000     0.308600000000     0          
T        Si     0.296933333333     0.783150000000     0.413175000000     0          
T        Si     0.210700000000     0.765750000000     0.429300000000     0          
T        Si     0.245233333333     0.505500000000     0.269875000000     0          
T        Si     0.283266666667     0.683800000000     0.479900000000     0          
T        Si     0.255566666667     0.660100000000     0.383750000000     0          
T        Si     0.203933333333     0.716550000000     0.354025000000     0          
T        Si     0.321666666667     0.659000000000     0.317950000000     0          
T        Si     0.321766666667     0.976000000000     0.308600000000     0          
T        Si     0.296933333333     0.966850000000     0.413175000000     0          
T        Si     0.210700000000     0.984250000000     0.429300000000     0          
T        Si     0.088100000000     0.755500000000     0.480125000000     0          
T        Si     0.050066666667     0.933800000000     0.270100000000     0          
T        Si     0.077766666667     0.910100000000     0.366250000000     0          
T        Si     0.129400000000     0.966550000000     0.395975000000     0          
T        Si     0.011666666667     0.909000000000     0.432050000000     0          
T        Si     0.011566666667     0.726000000000     0.441400000000     0          
T        Si     0.036400000000     0.716850000000     0.336825000000     0          
T        Si     0.122633333333     0.734250000000     0.320700000000     0          
T        Si     0.088100000000     0.994500000000     0.730125000000     0          
T        Si     0.050066666667     0.816200000000     0.520100000000     0          
T        Si     0.077766666667     0.839900000000     0.616250000000     0          
T        Si     0.129400000000     0.783450000000     0.645975000000     0          
T        Si     0.011666666667     0.841000000000     0.682050000000     0          
T        Si     0.011566666667     0.524000000000     0.691400000000     0          
T        Si     0.036400000000     0.533150000000     0.586825000000     0          
T        Si     0.122633333333     0.515750000000     0.570700000000     0          
T        Si     0.245233333333     0.744500000000     0.519875000000     0          
T        Si     0.283266666667     0.566200000000     0.729900000000     0          
T        Si     0.255566666667     0.589900000000     0.633750000000     0          
T        Si     0.203933333333     0.533450000000     0.604025000000     0          
T        Si     0.321666666667     0.591000000000     0.567950000000     0          
T        Si     0.321766666667     0.774000000000     0.558600000000     0          
T        Si     0.296933333333     0.783150000000     0.663175000000     0          
T        Si     0.210700000000     0.765750000000     0.679300000000     0          
T        Si     0.245233333333     0.505500000000     0.519875000000     0          
T        Si     0.283266666667     0.683800000000     0.729900000000     0          
T        Si     0.255566666667     0.660100000000     0.633750000000     0          
T        Si     0.203933333333     0.716550000000     0.604025000000     0          
T        Si     0.321666666667     0.659000000000     0.567950000000     0          
T        Si     0.321766666667     0.976000000000     0.558600000000     0          
T        Si     0.296933333333     0.966850000000     0.663175000000     0          
T        Si     0.210700000000     0.984250000000     0.679300000000     0          
T        Si     0.088100000000     0.755500000000     0.730125000000     0          
T        Si     0.050066666667     0.933800000000     0.520100000000     0          
T        Si     0.077766666667     0.910100000000     0.616250000000     0          
T        Si     0.129400000000     0.966550000000     0.645975000000     0          
T        Si     0.011666666667     0.909000000000     0.682050000000     0          
T        Si     0.011566666667     0.726000000000     0.691400000000     0          
T        Si     0.036400000000     0.716850000000     0.586825000000     0          
T        Si     0.122633333333     0.734250000000     0.570700000000     0          
T        Si     0.088100000000     0.994500000000     0.980125000000     0          
T        Si     0.050066666667     0.816200000000     0.770100000000     0          
T        Si     0.077766666667     0.839900000000     0.866250000000     0          
T        Si     0.129400000000     0.783450000000     0.895975000000     0          
T        Si     0.011666666667     0.841000000000     0.932050000000     0          
T        Si     0.011566666667     0.524000000000     0.941400000000     0          
T        Si     0.036400000000     0.533150000000     0.836825000000     0          
T        Si     0.122633333333     0.515750000000     0.820700000000     0          
T        Si     0.245233333333     0.744500000000     0.769875000000     0          
T        Si     0.283266666667     0.566200000000     0.979900000000     0          
T        Si     0.255566666667     0.589900000000     0.883750000000     0          
T        Si     0.203933333333     0.533450000000     0.854025000000     0          
T        Si     0.321666666667     0.591000000000     0.817950000000     0          
T        Si     0.321766666667     0.774000000000     0.808600000000     0          
T        Si     0.296933333333     0.783150000000     0.913175000000     0          
T        Si     0.210700000000     0.765750000000     0.929300000000     0          
T        Si     0.245233333333     0.505500000000     0.769875000000     0          
T        Si     0.283266666667     0.683800000000     0.979900000000     0          
T        Si     0.255566666667     0.660100000000     0.883750000000     0          
T        Si     0.203933333333     0.716550000000     0.854025000000     0          
T        Si     0.321666666667     0.659000000000     0.817950000000     0          
T        Si     0.321766666667     0.976000000000     0.808600000000     0          
T        Si     0.296933333333     0.966850000000     0.913175000000     0          
T        Si     0.210700000000     0.984250000000     0.929300000000     0          
T        Si     0.088100000000     0.755500000000     0.980125000000     0          
T        Si     0.050066666667     0.933800000000     0.770100000000     0          
T        Si     0.077766666667     0.910100000000     0.866250000000     0          
T        Si     0.129400000000     0.966550000000     0.895975000000     0          
T        Si     0.011666666667     0.909000000000     0.932050000000     0          
T        Si     0.011566666667     0.726000000000     0.941400000000     0          
T        Si     0.036400000000     0.716850000000     0.836825000000     0          
T        Si     0.122633333333     0.734250000000     0.820700000000     0          
T        Si     0.421433333333     0.494500000000     0.230125000000     0          
T        Si     0.383400000000     0.316200000000     0.020100000000     0          
T        Si     0.411100000000     0.339900000000     0.116250000000     0          
T        Si     0.462733333333     0.283450000000     0.145975000000     0          
T        Si     0.345000000000     0.341000000000     0.182050000000     0          
T        Si     0.344900000000     0.024000000000     0.191400000000     0          
T        Si     0.369733333333     0.033150000000     0.086825000000     0          
T        Si     0.455966666667     0.015750000000     0.070700000000     0          
T        Si     0.578566666667     0.244500000000     0.019875000000     0          
T        Si     0.616600000000     0.066200000000     0.229900000000     0          
T        Si     0.588900000000     0.089900000000     0.133750000000     0          
T        Si     0.537266666667     0.033450000000     0.104025000000     0          
T        Si     0.655000000000     0.091000000000     0.067950000000     0          
T        Si     0.655100000000     0.274000000000     0.058600000000     0          
T        Si     0.630266666667     0.283150000000     0.163175000000     0          
T        Si     0.544033333333     0.265750000000     0.179300000000     0          
T        Si     0.578566666667     0.005500000000     0.019875000000     0          
T        Si     0.616600000000     0.183800000000     0.229900000000     0          
T        Si     0.588900000000     0.160100000000     0.133750000000     0          
T        Si     0.537266666667     0.216550000000     0.104025000000     0          
T        Si     0.655000000000     0.159000000000     0.067950000000     0          
T        Si     0.655100000000     0.476000000000     0.058600000000     0          
T        Si     0.630266666667     0.466850000000     0.163175000000     0          
T        Si     0.544033333333     0.484250000000     0.179300000000     0          
T        Si     0.421433333333     0.255500000000     0.230125000000     0          
T        Si     0.383400000000     0.433800000000     0.020100000000     0          
T        Si     0.411100000000     0.410100000000     0.116250000000     0          
T        Si     0.462733333333     0.466550000000     0.145975000000     0          
T        Si     0.345000000000     0.409000000000     0.182050000000     0          
T        Si     0.344900000000     0.226000000000     0.191400000000     0          
T        Si     0.369733333333     0.216850000000     0.086825000000     0          
T        Si     0.455966666667     0.234250000000     0.070700000000     0          
T        Si     0.421433333333     0.494500000000     0.480125000000     0          
T        Si     0.383400000000     0.316200000000     0.270100000000     0          
T        Si     0.411100000000     0.339900000000     0.366250000000     0          
T        Si     0.462733333333     0.283450000000     0.395975000000     0          
T        Si     0.345000000000     0.341000000000     0.432050000000     0          
T        Si     0.344900000000     0.024000000000     0.441400000000     0          
T        Si     0.369733333333     0.033150000000     0.336825000000     0          
T        Si     0.455966666667     0.015750000000     0.320700000000     0          
T        Si     0.578566666667     0.244500000000     0.269875000000     0          
T        Si     0.616600000000     0.066200000000     0.479900000000     0          
T        Si     0.588900000000     0.089900000000     0.383750000000     0          
T        Si     0.537266666667     0.033450000000     0.354025000000     0          
T        Si     0.655000000000     0.091000000000     0.317950000000     0          
T        Si     0.655100000000     0.274000000000     0.308600000000     0          
T        Si     0.630266666667     0.283150000000     0.413175000000     0          
T        Si     0.544033333333     0.265750000000     0.429300000000     0          
T        Si     0.578566666667     0.005500000000     0.269875000000     0          
T        Si     0.616600000000     0.183800000000     0.479900000000     0          
T        Si     0.588900000000     0.160100000000     0.383750000000     0          
T        Si     0.537266666667     0.216550000000     0.354025000000     0          
T        Si     0.655000000000     0.159000000000     0.317950000000     0          
T        Si     0.655100000000     0.476000000000     0.308600000000     0          
T        Si     0.630266666667     0.466850000000     0.413175000000     0          
T        Si     0.544033333333     0.484250000000     0.429300000000     0          
T        Si     0.421433333333     0.255500000000     0.480125000000     0          
T        Si     0.383400000000     0.433800000000     0.270100000000     0          
T        Si     0.411100000000     0.410100000000     0.366250000000     0          
T        Si     0.462733333333     0.466550000000     0.395975000000     0          
T        Si     0.345000000000     0.409000000000     0.432050000000     0          
T        Si     0.344900000000     0.226000000000     0.441400000000     0          
T        Si     0.369733333333     0.216850000000     0.336825000000     0          
T        Si     0.455966666667     0.234250000000     0.320700000000     0          
T        Si     0.421433333333     0.494500000000     0.730125000000     0          
T        Si     0.383400000000     0.316200000000     0.520100000000     0          
T        Si     0.411100000000     0.339900000000     0.616250000000     0          
T        Si     0.462733333333     0.283450000000     0.645975000000     0          
T        Si     0.345000000000     0.341000000000     0.682050000000     0          
T        Si     0.344900000000     0.024000000000     0.691400000000     0          
T        Si     0.369733333333     0.033150000000     0.586825000000     0          
T        Si     0.455966666667     0.015750000000     0.570700000000     0          
T        Si     0.578566666667     0.244500000000     0.519875000000     0          
T        Si     0.616600000000     0.066200000000     0.729900000000     0          
T        Si     0.588900000000     0.089900000000     0.633750000000     0          
T        Si     0.537266666667     0.033450000000     0.604025000000     0          
T        Si     0.655000000000     0.091000000000     0.567950000000     0          
T        Si     0.655100000000     0.274000000000     0.558600000000     0          
T        Si     0.630266666667     0.283150000000     0.663175000000     0          
T        Si     0.544033333333     0.265750000000     0.679300000000     0          
T        Si     0.578566666667     0.005500000000     0.519875000000     0          
T        Si     0.616600000000     0.183800000000     0.729900000000     0          
T        Si     0.588900000000     0.160100000000     0.633750000000     0          
T        Si     0.537266666667     0.216550000000     0.604025000000     0          
T        Si     0.655000000000     0.159000000000     0.567950000000     0          
T        Si     0.655100000000     0.476000000000     0.558600000000     0          
T        Si     0.630266666667     0.466850000000     0.663175000000     0          
T        Si     0.544033333333     0.484250000000     0.679300000000     0          
T        Si     0.421433333333     0.255500000000     0.730125000000     0          
T        Si     0.383400000000     0.433800000000     0.520100000000     0          
T        Si     0.411100000000     0.410100000000     0.616250000000     0          
T        Si     0.462733333333     0.466550000000     0.645975000000     0          
T        Si     0.345000000000     0.409000000000     0.682050000000     0          
T        Si     0.344900000000     0.226000000000     0.691400000000     0          
T        Si     0.369733333333     0.216850000000     0.586825000000     0          
T        Si     0.455966666667     0.234250000000     0.570700000000     0          
T        Si     0.421433333333     0.494500000000     0.980125000000     0          
T        Si     0.383400000000     0.316200000000     0.770100000000     0          
T        Si     0.411100000000     0.339900000000     0.866250000000     0          
T        Si     0.462733333333     0.283450000000     0.895975000000     0          
T        Si     0.345000000000     0.341000000000     0.932050000000     0          
T        Si     0.344900000000     0.024000000000     0.941400000000     0          
T        Si     0.369733333333     0.033150000000     0.836825000000     0          
T        Si     0.455966666667     0.015750000000     0.820700000000     0          
T        Si     0.578566666667     0.244500000000     0.769875000000     0          
T        Si     0.616600000000     0.066200000000     0.979900000000     0          
T        Si     0.588900000000     0.089900000000     0.883750000000     0          
T        Si     0.537266666667     0.033450000000     0.854025000000     0          
T        Si     0.655000000000     0.091000000000     0.817950000000     0          
T        Si     0.655100000000     0.274000000000     0.808600000000     0          
T        Si     0.630266666667     0.283150000000     0.913175000000     0          
T        Si     0.544033333333     0.265750000000     0.929300000000     0          
T        Si     0.578566666667     0.005500000000     0.769875000000     0          
T        Si     0.616600000000     0.183800000000     0.979900000000     0          
T        Si     0.588900000000     0.160100000000     0.883750000000     0          
T        Si     0.537266666667     0.216550000000     0.854025000000     0          
T        Si     0.655000000000     0.159000000000     0.817950000000     0          
T        Si     0.655100000000     0.476000000000     0.808600000000     0          
T        Si     0.630266666667     0.466850000000     0.913175000000     0          
T        Si     0.544033333333     0.484250000000     0.929300000000     0          
T        Si     0.421433333333     0.255500000000     0.980125000000     0          
T        Si     0.383400000000     0.433800000000     0.770100000000     0          
T        Si     0.411100000000     0.410100000000     0.866250000000     0          
T        Si     0.462733333333     0.466550000000     0.895975000000     0          
T        Si     0.345000000000     0.409000000000     0.932050000000     0          
T        Si     0.344900000000     0.226000000000     0.941400000000     0          
T        Si     0.369733333333     0.216850000000     0.836825000000     0          
T        Si     0.455966666667     0.234250000000     0.820700000000     0          
T        Si     0.421433333333     0.994500000000     0.230125000000     0          
T        Si     0.383400000000     0.816200000000     0.020100000000     0          
T        Si     0.411100000000     0.839900000000     0.116250000000     0          
T        Si     0.462733333333     0.783450000000     0.145975000000     0          
T        Si     0.345000000000     0.841000000000     0.182050000000     0          
T        Si     0.344900000000     0.524000000000     0.191400000000     0          
T        Si     0.369733333333     0.533150000000     0.086825000000     0          
T        Si     0.455966666667     0.515750000000     0.070700000000     0          
T        Si     0.578566666667     0.744500000000     0.019875000000     0          
T        Si     0.616600000000     0.566200000000     0.229900000000     0          
T        Si     0.588900000000     0.589900000000     0.133750000000     0          
T        Si     0.537266666667     0.533450000000     0.104025000000     0          
T        Si     0.655000000000     0.591000000000     0.067950000000     0          
T        Si     0.655100000000     0.774000000000     0.058600000000     0          
T        Si     0.630266666667     0.783150000000     0.163175000000     0          
T        Si     0.544033333333     0.765750000000     0.179300000000     0          
T        Si     0.578566666667     0.505500000000     0.019875000000     0          
T        Si     0.616600000000     0.683800000000     0.229900000000     0          
T        Si     0.588900000000     0.660100000000     0.133750000000     0          
T        Si     0.537266666667     0.716550000000     0.104025000000     0          
T        Si     0.655000000000     0.659000000000     0.067950000000     0          
T        Si     0.655100000000     0.976000000000     0.058600000000     0          
T        Si     0.630266666667     0.966850000000     0.163175000000     0          
T        Si     0.544033333333     0.984250000000     0.179300000000     0          
T        Si     0.421433333333     0.755500000000     0.230125000000     0          
T        Si     0.383400000000     0.933800000000     0.020100000000     0          
T        Si     0.411100000000     0.910100000000     0.116250000000     0          
T        Si     0.462733333333     0.966550000000     0.145975000000     0          
T        Si     0.345000000000     0.909000000000     0.182050000000     0          
T        Si     0.344900000000     0.726000000000     0.191400000000     0          
T        Si     0.369733333333     0.716850000000     0.086825000000     0          
T        Si     0.455966666667     0.734250000000     0.070700000000     0          
T        Si     0.421433333333     0.994500000000     0.480125000000     0          
T        Si     0.383400000000     0.816200000000     0.270100000000     0          
T        Si     0.411100000000     0.839900000000     0.366250000000     0          
T        Si     0.462733333333     0.783450000000     0.395975000000     0          
T        Si     0.345000000000     0.841000000000     0.432050000000     0          
T        Si     0.344900000000     0.524000000000     0.441400000000     0          
T        Si     0.369733333333     0.533150000000     0.336825000000     0          
T        Si     0.455966666667     0.515750000000     0.320700000000     0          
T        Si     0.578566666667     0.744500000000     0.269875000000     0          
T        Si     0.616600000000     0.566200000000     0.479900000000     0          
T        Si     0.588900000000     0.589900000000     0.383750000000     0          
T        Si     0.537266666667     0.533450000000     0.354025000000     0          
T        Si     0.655000000000     0.591000000000     0.317950000000     0          
T        Si     0.655100000000     0.774000000000     0.308600000000     0          
T        Si     0.630266666667     0.783150000000     0.413175000000     0          
T        Si     0.544033333333     0.765750000000     0.429300000000     0          
T        Si     0.578566666667     0.505500000000     0.269875000000     0          
T        Si     0.616600000000     0.683800000000     0.479900000000     0          
T        Si     0.588900000000     0.660100000000     0.383750000000     0          
T        Si     0.537266666667     0.716550000000     0.354025000000     0          
T        Si     0.655000000000     0.659000000000     0.317950000000     0          
T        Si     0.655100000000     0.976000000000     0.308600000000     0          
T        Si     0.630266666667     0.966850000000     0.413175000000     0          
T        Si     0.544033333333     0.984250000000     0.429300000000     0          
T        Si     0.421433333333     0.755500000000     0.480125000000     0          
T        Si     0.383400000000     0.933800000000     0.270100000000     0          
T        Si     0.411100000000     0.910100000000     0.366250000000     0          
T        Si     0.462733333333     0.966550000000     0.395975000000     0          
T        Si     0.345000000000     0.909000000000     0.432050000000     0          
T        Si     0.344900000000     0.726000000000     0.441400000000     0          
T        Si     0.369733333333     0.716850000000     0.336825000000     0          
T        Si     0.455966666667     0.734250000000     0.320700000000     0          
T        Si     0.421433333333     0.994500000000     0.730125000000     0          
T        Si     0.383400000000     0.816200000000     0.520100000000     0          
T        Si     0.411100000000     0.839900000000     0.616250000000     0          
T        Si     0.462733333333     0.783450000000     0.645975000000     0          
T        Si     0.345000000000     0.841000000000     0.682050000000     0          
T        Si     0.344900000000     0.524000000000     0.691400000000     0          
T        Si     0.369733333333     0.533150000000     0.586825000000     0          
T        Si     0.455966666667     0.515750000000     0.570700000000     0          
T        Si     0.578566666667     0.744500000000     0.519875000000     0          
T        Si     0.616600000000     0.566200000000     0.729900000000     0          
T        Si     0.588900000000     0.589900000000     0.633750000000     0          
T        Si     0.537266666667     0.533450000000     0.604025000000     0          
T        Si     0.655000000000     0.591000000000     0.567950000000     0          
T        Si     0.655100000000     0.774000000000     0.558600000000     0          
T        Si     0.630266666667     0.783150000000     0.663175000000     0          
T        Si     0.544033333333     0.765750000000     0.679300000000     0          
T        Si     0.578566666667     0.505500000000     0.519875000000     0          
T        Si     0.616600000000     0.683800000000     0.729900000000     0          
T        Si     0.588900000000     0.660100000000     0.633750000000     0          
T        Si     0.537266666667     0.716550000000     0.604025000000     0          
T        Si     0.655000000000     0.659000000000     0.567950000000     0          
T        Si     0.655100000000     0.976000000000     0.558600000000     0          
T        Si     0.630266666667     0.966850000000     0.663175000000     0          
T        Si     0.544033333333     0.984250000000     0.679300000000     0          
T        Si     0.421433333333     0.755500000000     0.730125000000     0          
T        Si     0.383400000000     0.933800000000     0.520100000000     0          
T        Si     0.411100000000     0.910100000000     0.616250000000     0          
T        Si     0.462733333333     0.966550000000     0.645975000000     0          
T        Si     0.345000000000     0.909000000000     0.682050000000     0          
T        Si     0.344900000000     0.726000000000     0.691400000000     0          
T        Si     0.369733333333     0.716850000000     0.586825000000     0          
T        Si     0.455966666667     0.734250000000     0.570700000000     0          
T        Si     0.421433333333     0.994500000000     0.980125000000     0          
T        Si     0.383400000000     0.816200000000     0.770100000000     0          
T        Si     0.411100000000     0.839900000000     0.866250000000     0          
T        Si     0.462733333333     0.783450000000     0.895975000000     0          
T        Si     0.345000000000     0.841000000000     0.932050000000     0          
T        Si     0.344900000000     0.524000000000     0.941400000000     0          
T        Si     0.369733333333     0.533150000000     0.836825000000     0          
T        Si     0.455966666667     0.515750000000     0.820700000000     0          
T        Si     0.578566666667     0.744500000000     0.769875000000     0          
T        Si     0.616600000000     0.566200000000     0.979900000000     0          
T        Si     0.588900000000     0.589900000000     0.883750000000     0          
T        Si     0.537266666667     0.533450000000     0.854025000000     0          
T        Si     0.655000000000     0.591000000000     0.817950000000     0          
T        Si     0.655100000000     0.774000000000     0.808600000000     0          
T        Si     0.630266666667     0.783150000000     0.913175000000     0          
T        Si     0.544033333333     0.765750000000     0.929300000000     0          
T        Si     0.578566666667     0.505500000000     0.769875000000     0          
T        Si     0.616600000000     0.683800000000     0.979900000000     0          
T        Si     0.588900000000     0.660100000000     0.883750000000     0          
T        Si     0.537266666667     0.716550000000     0.854025000000     0          
T        Si     0.655000000000     0.659000000000     0.817950000000     0          
T        Si     0.655100000000     0.976000000000     0.808600000000     0          
T        Si     0.630266666667     0.966850000000     0.913175000000     0          
T        Si     0.544033333333     0.984250000000     0.929300000000     0          
T        Si     0.421433333333     0.755500000000     0.980125000000     0          
T        Si     0.383400000000     0.933800000000     0.770100000000     0          
T        Si     0.411100000000     0.910100000000     0.866250000000     0          
T        Si     0.462733333333     0.966550000000     0.895975000000     0          
T        Si     0.345000000000     0.909000000000     0.932050000000     0          
T        Si     0.344900000000     0.726000000000     0.941400000000     0          
T        Si     0.369733333333     0.716850000000     0.836825000000     0          
T        Si     0.455966666667     0.734250000000     0.820700000000     0          
T        Si     0.754766666667     0.494500000000     0.230125000000     0          
T        Si     0.716733333333     0.316200000000     0.020100000000     0          
T        Si     0.744433333333     0.339900000000     0.116250000000     0          
T        Si     0.796066666667     0.283450000000     0.145975000000     0          
T        Si     0.678333333333     0.341000000000     0.182050000000     0          
T        Si     0.678233333333     0.024000000000     0.191400000000     0          
T        Si     0.703066666667     0.033150000000     0.086825000000     0          
T        Si     0.789300000000     0.015750000000     0.070700000000     0          
T        Si     0.911900000000     0.244500000000     0.019875000000     0          
T        Si     0.949933333333     0.066200000000     0.229900000000     0          
T        Si     0.922233333333     0.089900000000     0.133750000000     0          
T        Si     0.870600000000     0.033450000000     0.104025000000     0          
T        Si     0.988333333333     0.091000000000     0.067950000000     0          
T        Si     0.988433333333     0.274000000000     0.058600000000     0          
T        Si     0.963600000000     0.283150000000     0.163175000000     0          
T        Si     0.877366666667     0.265750000000     0.179300000000     0          
T        Si     0.911900000000     0.005500000000     0.019875000000     0          
T        Si     0.949933333333     0.183800000000     0.229900000000     0          
T        Si     0.922233333333     0.160100000000     0.133750000000     0          
T        Si     0.870600000000     0.216550000000     0.104025000000     0          
T        Si     0.988333333333     0.159000000000     0.067950000000     0          
T        Si     0.988433333333     0.476000000000     0.058600000000     0          
T        Si     0.963600000000     0.466850000000     0.163175000000     0          
T        Si     0.877366666667     0.484250000000     0.179300000000     0          
T        Si     0.754766666667     0.255500000000     0.230125000000     0          
T        Si     0.716733333333     0.433800000000     0.020100000000     0          
T        Si     0.744433333333     0.410100000000     0.116250000000     0          
T        Si     0.796066666667     0.466550000000     0.145975000000     0          
T        Si     0.678333333333     0.409000000000     0.182050000000     0          
T        Si     0.678233333333     0.226000000000     0.191400000000     0          
T        Si     0.703066666667     0.216850000000     0.086825000000     0          
T        Si     0.789300000000     0.234250000000     0.070700000000     0          
T        Si     0.754766666667     0.494500000000     0.480125000000     0          
T        Si     0.716733333333     0.316200000000     0.270100000000     0          
T        Si     0.744433333333     0.339900000000     0.366250000000     0          
T        Si     0.796066666667     0.283450000000     0.395975000000     0          
T        Si     0.678333333333     0.341000000000     0.432050000000     0          
T        Si     0.678233333333     0.024000000000     0.441400000000     0          
T        Si     0.703066666667     0.033150000000     0.336825000000     0          
T        Si     0.789300000000     0.015750000000     0.320700000000     0          
T        Si     0.911900000000     0.244500000000     0.269875000000     0          
T        Si     0.949933333333     0.066200000000     0.479900000000     0          
T        Si     0.922233333333     0.089900000000     0.383750000000     0          
T        Si     0.870600000000     0.033450000000     0.354025000000     0          
T        Si     0.988333333333     0.091000000000     0.317950000000     0          
T        Si     0.988433333333     0.274000000000     0.308600000000     0          
T        Si     0.963600000000     0.283150000000     0.413175000000     0          
T        Si     0.877366666667     0.265750000000     0.429300000000     0          
T        Si     0.911900000000     0.005500000000     0.269875000000     0          
T        Si     0.949933333333     0.183800000000     0.479900000000     0          
T        Si     0.922233333333     0.160100000000     0.383750000000     0          
T        Si     0.870600000000     0.216550000000     0.354025000000     0          
T        Si     0.988333333333     0.159000000000     0.317950000000     0          
T        Si     0.988433333333     0.476000000000     0.308600000000     0          
T        Si     0.963600000000     0.466850000000     0.413175000000     0          
T        Si     0.877366666667     0.484250000000     0.429300000000     0          
T        Si     0.754766666667     0.255500000000     0.480125000000     0          
T        Si     0.716733333333     0.433800000000     0.270100000000     0          
T        Si     0.744433333333     0.410100000000     0.366250000000     0          
T        Si     0.796066666667     0.466550000000     0.395975000000     0          
T        Si     0.678333333333     0.409000000000     0.432050000000     0          
T        Si     0.678233333333     0.226000000000     0.441400000000     0          
T        Si     0.703066666667     0.216850000000     0.336825000000     0          
T        Si     0.789300000000     0.234250000000     0.320700000000     0          
T        Si     0.754766666667     0.494500000000     0.730125000000     0          
T        Si     0.716733333333     0.316200000000     0.520100000000     0          
T        Si     0.744433333333     0.339900000000     0.616250000000     0          
T        Si     0.796066666667     0.283450000000     0.645975000000     0          
T        Si     0.678333333333     0.341000000000     0.682050000000     0          
T        Si     0.678233333333     0.024000000000     0.691400000000     0          
T        Si     0.703066666667     0.033150000000     0.586825000000     0          
T        Si     0.789300000000     0.015750000000     0.570700000000     0          
T        Si     0.911900000000     0.244500000000     0.519875000000     0          
T        Si     0.949933333333     0.066200000000     0.729900000000     0          
T        Si     0.922233333333     0.089900000000     0.633750000000     0          
T        Si     0.870600000000     0.033450000000     0.604025000000     0          
T        Si     0.988333333333     0.091000000000     0.567950000000     0          
T        Si     0.988433333333     0.274000000000     0.558600000000     0          
T        Si     0.963600000000     0.283150000000     0.663175000000     0          
T        Si     0.877366666667     0.265750000000     0.679300000000     0          
T        Si     0.911900000000     0.005500000000     0.519875000000     0          
T        Si     0.949933333333     0.183800000000     0.729900000000     0          
T        Si     0.922233333333     0.160100000000     0.633750000000     0          
T        Si     0.870600000000     0.216550000000     0.604025000000     0          
T        Si     0.988333333333     0.159000000000     0.567950000000     0          
T        Si     0.988433333333     0.476000000000     0.558600000000     0          
T        Si     0.963600000000     0.466850000000     0.663175000000     0          
T        Si     0.877366666667     0.484250000000     0.679300000000     0          
T        Si     0.754766666667     0.255500000000     0.730125000000     0          
T        Si     0.716733333333     0.433800000000     0.520100000000     0          
T        Si     0.744433333333     0.410100000000     0.616250000000     0          
T        Si     0.796066666667     0.466550000000     0.645975000000     0          
T        Si     0.678333333333     0.409000000000     0.682050000000     0          
T        Si     0.678233333333     0.226000000000     0.691400000000     0          
T        Si     0.703066666667     0.216850000000     0.586825000000     0          
T        Si     0.789300000000     0.234250000000     0.570700000000     0          
T        Si     0.754766666667     0.494500000000     0.980125000000     0          
T        Si     0.716733333333     0.316200000000     0.770100000000     0          
T        Si     0.744433333333     0.339900000000     0.866250000000     0          
T        Si     0.796066666667     0.283450000000     0.895975000000     0          
T        Si     0.678333333333     0.341000000000     0.932050000000     0          
T        Si     0.678233333333     0.024000000000     0.941400000000     0          
T        Si     0.703066666667     0.033150000000     0.836825000000     0          
T        Si     0.789300000000     0.015750000000     0.820700000000     0          
T        Si     0.911900000000     0.244500000000     0.769875000000     0          
T        Si     0.949933333333     0.066200000000     0.979900000000     0          
T        Si     0.922233333333     0.089900000000     0.883750000000     0          
T        Si     0.870600000000     0.033450000000     0.854025000000     0          
T        Si     0.988333333333     0.091000000000     0.817950000000     0          
T        Si     0.988433333333     0.274000000000     0.808600000000     0          
T        Si     0.963600000000     0.283150000000     0.913175000000     0          
T        Si     0.877366666667     0.265750000000     0.929300000000     0          
T        Si     0.911900000000     0.005500000000     0.769875000000     0          
T        Si     0.949933333333     0.183800000000     0.979900000000     0          
T        Si     0.922233333333     0.160100000000     0.883750000000     0          
T        Si     0.870600000000     0.216550000000     0.854025000000     0          
T        Si     0.988333333333     0.159000000000     0.817950000000     0          
T        Si     0.988433333333     0.476000000000     0.808600000000     0          
T        Si     0.963600000000     0.466850000000     0.913175000000     0          
T        Si     0.877366666667     0.484250000000     0.929300000000     0          
T        Si     0.754766666667     0.255500000000     0.980125000000     0          
T        Si     0.716733333333     0.433800000000     0.770100000000     0          
T        Si     0.744433333333     0.410100000000     0.866250000000     0          
T        Si     0.796066666667     0.466550000000     0.895975000000     0          
T        Si     0.678333333333     0.409000000000     0.932050000000     0          
T        Si     0.678233333333     0.226000000000     0.941400000000     0          
T        Si     0.703066666667     0.216850000000     0.836825000000     0          
T        Si     0.789300000000     0.234250000000     0.820700000000     0          
T        Si     0.754766666667     0.994500000000     0.230125000000     0          
T        Si     0.716733333333     0.816200000000     0.020100000000     0          
T        Si     0.744433333333     0.839900000000     0.116250000000     0          
T        Si     0.796066666667     0.783450000000     0.145975000000     0          
T        Si     0.678333333333     0.841000000000     0.182050000000     0          
T        Si     0.678233333333     0.524000000000     0.191400000000     0          
T        Si     0.703066666667     0.533150000000     0.086825000000     0          
T        Si     0.789300000000     0.515750000000     0.070700000000     0          
T        Si     0.911900000000     0.744500000000     0.019875000000     0          
T        Si     0.949933333333     0.566200000000     0.229900000000     0          
T        Si     0.922233333333     0.589900000000     0.133750000000     0          
T        Si     0.870600000000     0.533450000000     0.104025000000     0          
T        Si     0.988333333333     0.591000000000     0.067950000000     0          
T        Si     0.988433333333     0.774000000000     0.058600000000     0          
T        Si     0.963600000000     0.783150000000     0.163175000000     0          
T        Si     0.877366666667     0.765750000000     0.179300000000     0          
T        Si     0.911900000000     0.505500000000     0.019875000000     0          
T        Si     0.949933333333     0.683800000000     0.229900000000     0          
T        Si     0.922233333333     0.660100000000     0.133750000000     0          
T        Si     0.870600000000     0.716550000000     0.104025000000     0          
T        Si     0.988333333333     0.659000000000     0.067950000000     0          
T        Si     0.988433333333     0.976000000000     0.058600000000     0          
T        Si     0.963600000000     0.966850000000     0.163175000000     0          
T        Si     0.877366666667     0.984250000000     0.179300000000     0          
T        Si     0.754766666667     0.755500000000     0.230125000000     0          
T        Si     0.716733333333     0.933800000000     0.020100000000     0          
T        Si     0.744433333333     0.910100000000     0.116250000000     0          
T        Si     0.796066666667     0.966550000000     0.145975000000     0          
T        Si     0.678333333333     0.909000000000     0.182050000000     0          
T        Si     0.678233333333     0.726000000000     0.191400000000     0          
T        Si     0.703066666667     0.716850000000     0.086825000000     0          
T        Si     0.789300000000     0.734250000000     0.070700000000     0          
T        Si     0.754766666667     0.994500000000     0.480125000000     0          
T        Si     0.716733333333     0.816200000000     0.270100000000     0          
T        Si     0.744433333333     0.839900000000     0.366250000000     0          
T        Si     0.796066666667     0.783450000000     0.395975000000     0          
T        Si     0.678333333333     0.841000000000     0.432050000000     0          
T        Si     0.678233333333     0.524000000000     0.441400000000     0          
T        Si     0.703066666667     0.533150000000     0.336825000000     0          
T        Si     0.789300000000     0.515750000000     0.320700000000     0          
T        Si     0.911900000000     0.744500000000     0.269875000000     0          
T        Si     0.949933333333     0.566200000000     0.479900000000     0          
T        Si     0.922233333333     0.589900000000     0.383750000000     0          
T        Si     0.870600000000     0.533450000000     0.354025000000     0          
T        Si     0.988333333333     0.591000000000     0.317950000000     0          
T        Si     0.988433333333     0.774000000000     0.308600000000     0          
T        Si     0.963600000000     0.783150000000     0.413175000000     0          
T        Si     0.877366666667     0.765750000000     0.429300000000     0          
T        Si     0.911900000000     0.505500000000     0.269875000000     0          
T        Si     0.949933333333     0.683800000000     0.479900000000     0          
T        Si     0.922233333333     0.660100000000     0.383750000000     0          
T        Si     0.870600000000     0.716550000000     0.354025000000     0          
T        Si     0.988333333333     0.659000000000     0.317950000000     0          
T        Si     0.988433333333     0.976000000000     0.308600000000     0          
T        Si     0.963600000000     0.966850000000     0.413175000000     0          
T        Si     0.877366666667     0.984250000000     0.429300000000     0          
T        Si     0.754766666667     0.755500000000     0.480125000000     0          
T        Si     0.716733333333     0.933800000000     0.270100000000     0          
T        Si     0.744433333333     0.910100000000     0.366250000000     0          
T        Si     0.796066666667     0.966550000000     0.395975000000     0          
T        Si     0.678333333333     0.909000000000     0.432050000000     0          
T        Si     0.678233333333     0.726000000000     0.441400000000     0          
T        Si     0.703066666667     0.716850000000     0.336825000000     0          
T        Si     0.789300000000     0.734250000000     0.320700000000     0          
T        Si     0.754766666667     0.994500000000     0.730125000000     0          
T        Si     0.716733333333     0.816200000000     0.520100000000     0          
T        Si     0.744433333333     0.839900000000     0.616250000000     0          
T        Si     0.796066666667     0.783450000000     0.645975000000     0          
T        Si     0.678333333333     0.841000000000     0.682050000000     0          
T        Si     0.678233333333     0.524000000000     0.691400000000     0          
T        Si     0.703066666667     0.533150000000     0.586825000000     0          
T        Si     0.789300000000     0.515750000000     0.570700000000     0          
T        Si     0.911900000000     0.744500000000     0.519875000000     0          
T        Si     0.949933333333     0.566200000000     0.729900000000     0          
T        Si     0.922233333333     0.589900000000     0.633750000000     0          
T        Si     0.870600000000     0.533450000000     0.604025000000     0          
T        Si     0.988333333333     0.591000000000     0.567950000000     0          
T        Si     0.988433333333     0.774000000000     0.558600000000     0          
T        Si     0.963600000000     0.783150000000     0.663175000000     0          
T        Si     0.877366666667     0.765750000000     0.679300000000     0          
T        Si     0.911900000000     0.505500000000     0.519875000000     0          
T        Si     0.949933333333     0.683800000000     0.729900000000     0          
T        Si     0.922233333333     0.660100000000     0.633750000000     0          
T        Si     0.870600000000     0.716550000000     0.604025000000     0          
T        Si     0.988333333333     0.659000000000     0.567950000000     0          
T        Si     0.988433333333     0.976000000000     0.558600000000     0          
T        Si     0.963600000000     0.966850000000     0.663175000000     0          
T        Si     0.877366666667     0.984250000000     0.679300000000     0          
T        Si     0.754766666667     0.755500000000     0.730125000000     0          
T        Si     0.716733333333     0.933800000000     0.520100000000     0          
T        Si     0.744433333333     0.910100000000     0.616250000000     0          
T        Si     0.796066666667     0.966550000000     0.645975000000     0          
T        Si     0.678333333333     0.909000000000     0.682050000000     0          
T        Si     0.678233333333     0.726000000000     0.691400000000     0          
T        Si     0.703066666667     0.716850000000     0.586825000000     0          
T        Si     0.789300000000     0.734250000000     0.570700000000     0          
T        Si     0.754766666667     0.994500000000     0.980125000000     0          
T        Si     0.716733333333     0.816200000000     0.770100000000     0          
T        Si     0.744433333333     0.839900000000     0.866250000000     0          
T        Si     0.796066666667     0.783450000000     0.895975000000     0          
T        Si     0.678333333333     0.841000000000     0.932050000000     0          
T        Si     0.678233333333     0.524000000000     0.941400000000     0          
T        Si     0.703066666667     0.533150000000     0.836825000000     0          
T        Si     0.789300000000     0.515750000000     0.820700000000     0          
T        Si     0.911900000000     0.744500000000     0.769875000000     0          
T        Si     0.949933333333     0.566200000000     0.979900000000     0          
T        Si     0.922233333333     0.589900000000     0.883750000000     0          
T        Si     0.870600000000     0.533450000000     0.854025000000     0          
T        Si     0.988333333333     0.591000000000     0.817950000000     0          
T        Si     0.988433333333     0.774000000000     0.808600000000     0          
T        Si     0.963600000000     0.783150000000     0.913175000000     0          
T        Si     0.877366666667     0.765750000000     0.929300000000     0          
T        Si     0.911900000000     0.505500000000     0.769875000000     0          
T        Si     0.949933333333     0.683800000000     0.979900000000     0          
T        Si     0.922233333333     0.660100000000     0.883750000000     0          
T        Si     0.870600000000     0.716550000000     0.854025000000     0          
T        Si     0.988333333333     0.659000000000     0.817950000000     0          
T        Si     0.988433333333     0.976000000000     0.808600000000     0          
T        Si     0.963600000000     0.966850000000     0.913175000000     0          
T        Si     0.877366666667     0.984250000000     0.929300000000     0          
T        Si     0.754766666667     0.755500000000     0.980125000000     0          
T        Si     0.716733333333     0.933800000000     0.770100000000     0          
T        Si     0.744433333333     0.910100000000     0.866250000000     0          
T        Si     0.796066666667     0.966550000000     0.895975000000     0          
T        Si     0.678333333333     0.909000000000     0.932050000000     0          
T        Si     0.678233333333     0.726000000000     0.941400000000     0          
T        Si     0.703066666667     0.716850000000     0.836825000000     0          
T        Si     0.789300000000     0.734250000000     0.820700000000     0          
O        O      0.075000000000     0.462400000000     0.002425000000     0          
O        O      0.106766666667     0.487900000000     0.181250000000     0          
O        O      0.119633333333     0.010900000000     0.015350000000     0          
O        O      0.050766666667     0.016700000000     0.222550000000     0          
O        O      0.009533333333     0.303950000000     0.038600000000     0          
O        O      0.074700000000     0.333650000000     0.061275000000     0          
O        O      0.040866666667     0.339500000000     0.227525000000     0          
O        O      0.091166666667     0.375000000000     0.125775000000     0          
O        O      0.108866666667     0.316700000000     0.141250000000     0          
O        O      0.035700000000     0.334400000000     0.136825000000     0          
O        O      0.128566666667     0.267200000000     0.095850000000     0          
O        O      0.174033333333     0.287550000000     0.165200000000     0          
O        O      0.311366666667     0.315450000000     0.185575000000     0          
O        O      0.326166666667     0.375000000000     0.178200000000     0          
O        O      0.315833333333     0.494950000000     0.193050000000     0          
O        O      0.022566666667     0.030650000000     0.138975000000     0          
O        O      0.083166666667     0.031350000000     0.087050000000     0          
O        O      0.258333333333     0.212400000000     0.247575000000     0          
O        O      0.226566666667     0.237900000000     0.068750000000     0          
O        O      0.213700000000     0.260900000000     0.234650000000     0          
O        O      0.282566666667     0.266700000000     0.027450000000     0          
O        O      0.323800000000     0.053950000000     0.211400000000     0          
O        O      0.258633333333     0.083650000000     0.188725000000     0          
O        O      0.292466666667     0.089500000000     0.022475000000     0          
O        O      0.242166666667     0.125000000000     0.124225000000     0          
O        O      0.224466666667     0.066700000000     0.108750000000     0          
O        O      0.297633333333     0.084400000000     0.113175000000     0          
O        O      0.204766666667     0.017200000000     0.154150000000     0          
O        O      0.159300000000     0.037550000000     0.084800000000     0          
O        O      0.021966666667     0.065450000000     0.064425000000     0          
O        O      0.007166666667     0.125000000000     0.071800000000     0          
O        O      0.017500000000     0.244950000000     0.056950000000     0          
O        O      0.310766666667     0.280650000000     0.111025000000     0          
O        O      0.250166666667     0.281350000000     0.162950000000     0          
O        O      0.258333333333     0.037600000000     0.247575000000     0          
O        O      0.226566666667     0.012100000000     0.068750000000     0          
O        O      0.213700000000     0.489100000000     0.234650000000     0          
O        O      0.282566666667     0.483300000000     0.027450000000     0          
O        O      0.323800000000     0.196050000000     0.211400000000     0          
O        O      0.258633333333     0.166350000000     0.188725000000     0          
O        O      0.292466666667     0.160500000000     0.022475000000     0          
O        O      0.224466666667     0.183300000000     0.108750000000     0          
O        O      0.297633333333     0.165600000000     0.113175000000     0          
O        O      0.204766666667     0.232800000000     0.154150000000     0          
O        O      0.159300000000     0.212450000000     0.084800000000     0          
O        O      0.021966666667     0.184550000000     0.064425000000     0          
O        O      0.017500000000     0.005050000000     0.056950000000     0          
O        O      0.310766666667     0.469350000000     0.111025000000     0          
O        O      0.250166666667     0.468650000000     0.162950000000     0          
O        O      0.075000000000     0.287600000000     0.002425000000     0          
O        O      0.106766666667     0.262100000000     0.181250000000     0          
O        O      0.119633333333     0.239100000000     0.015350000000     0          
O        O      0.050766666667     0.233300000000     0.222550000000     0          
O        O      0.009533333333     0.446050000000     0.038600000000     0          
O        O      0.074700000000     0.416350000000     0.061275000000     0          
O        O      0.040866666667     0.410500000000     0.227525000000     0          
O        O      0.108866666667     0.433300000000     0.141250000000     0          
O        O      0.035700000000     0.415600000000     0.136825000000     0          
O        O      0.128566666667     0.482800000000     0.095850000000     0          
O        O      0.174033333333     0.462450000000     0.165200000000     0          
O        O      0.311366666667     0.434550000000     0.185575000000     0          
O        O      0.315833333333     0.255050000000     0.193050000000     0          
O        O      0.022566666667     0.219350000000     0.138975000000     0          
O        O      0.083166666667     0.218650000000     0.087050000000     0          
O        O      0.075000000000     0.462400000000     0.252425000000     0          
O        O      0.106766666667     0.487900000000     0.431250000000     0          
O        O      0.119633333333     0.010900000000     0.265350000000     0          
O        O      0.050766666667     0.016700000000     0.472550000000     0          
O        O      0.009533333333     0.303950000000     0.288600000000     0          
O        O      0.074700000000     0.333650000000     0.311275000000     0          
O        O      0.040866666667     0.339500000000     0.477525000000     0          
O        O      0.091166666667     0.375000000000     0.375775000000     0          
O        O      0.108866666667     0.316700000000     0.391250000000     0          
O        O      0.035700000000     0.334400000000     0.386825000000     0          
O        O      0.128566666667     0.267200000000     0.345850000000     0          
O        O      0.174033333333     0.287550000000     0.415200000000     0          
O        O      0.311366666667     0.315450000000     0.435575000000     0          
O        O      0.326166666667     0.375000000000     0.428200000000     0          
O        O      0.315833333333     0.494950000000     0.443050000000     0          
O        O      0.022566666667     0.030650000000     0.388975000000     0          
O        O      0.083166666667     0.031350000000     0.337050000000     0          
O        O      0.258333333333     0.212400000000     0.497575000000     0          
O        O      0.226566666667     0.237900000000     0.318750000000     0          
O        O      0.213700000000     0.260900000000     0.484650000000     0          
O        O      0.282566666667     0.266700000000     0.277450000000     0          
O        O      0.323800000000     0.053950000000     0.461400000000     0          
O        O      0.258633333333     0.083650000000     0.438725000000     0          
O        O      0.292466666667     0.089500000000     0.272475000000     0          
O        O      0.242166666667     0.125000000000     0.374225000000     0          
O        O      0.224466666667     0.066700000000     0.358750000000     0          
O        O      0.297633333333     0.084400000000     0.363175000000     0          
O        O      0.204766666667     0.017200000000     0.404150000000     0          
O        O      0.159300000000     0.037550000000     0.334800000000     0          
O        O      0.021966666667     0.065450000000     0.314425000000     0          
O        O      0.007166666667     0.125000000000     0.321800000000     0          
O        O      0.017500000000     0.244950000000     0.306950000000     0          
O        O      0.310766666667     0.280650000000     0.361025000000     0          
O        O      0.250166666667     0.281350000000     0.412950000000     0          
O        O      0.258333333333     0.037600000000     0.497575000000     0          
O        O      0.226566666667     0.012100000000     0.318750000000     0          
O        O      0.213700000000     0.489100000000     0.484650000000     0          
O        O      0.282566666667     0.483300000000     0.277450000000     0          
O        O      0.323800000000     0.196050000000     0.461400000000     0          
O        O      0.258633333333     0.166350000000     0.438725000000     0          
O        O      0.292466666667     0.160500000000     0.272475000000     0          
O        O      0.224466666667     0.183300000000     0.358750000000     0          
O        O      0.297633333333     0.165600000000     0.363175000000     0          
O        O      0.204766666667     0.232800000000     0.404150000000     0          
O        O      0.159300000000     0.212450000000     0.334800000000     0          
O        O      0.021966666667     0.184550000000     0.314425000000     0          
O        O      0.017500000000     0.005050000000     0.306950000000     0          
O        O      0.310766666667     0.469350000000     0.361025000000     0          
O        O      0.250166666667     0.468650000000     0.412950000000     0          
O        O      0.075000000000     0.287600000000     0.252425000000     0          
O        O      0.106766666667     0.262100000000     0.431250000000     0          
O        O      0.119633333333     0.239100000000     0.265350000000     0          
O        O      0.050766666667     0.233300000000     0.472550000000     0          
O        O      0.009533333333     0.446050000000     0.288600000000     0          
O        O      0.074700000000     0.416350000000     0.311275000000     0          
O        O      0.040866666667     0.410500000000     0.477525000000     0          
O        O      0.108866666667     0.433300000000     0.391250000000     0          
O        O      0.035700000000     0.415600000000     0.386825000000     0          
O        O      0.128566666667     0.482800000000     0.345850000000     0          
O        O      0.174033333333     0.462450000000     0.415200000000     0          
O        O      0.311366666667     0.434550000000     0.435575000000     0          
O        O      0.315833333333     0.255050000000     0.443050000000     0          
O        O      0.022566666667     0.219350000000     0.388975000000     0          
O        O      0.083166666667     0.218650000000     0.337050000000     0          
O        O      0.075000000000     0.462400000000     0.502425000000     0          
O        O      0.106766666667     0.487900000000     0.681250000000     0          
O        O      0.119633333333     0.010900000000     0.515350000000     0          
O        O      0.050766666667     0.016700000000     0.722550000000     0          
O        O      0.009533333333     0.303950000000     0.538600000000     0          
O        O      0.074700000000     0.333650000000     0.561275000000     0          
O        O      0.040866666667     0.339500000000     0.727525000000     0          
O        O      0.091166666667     0.375000000000     0.625775000000     0          
O        O      0.108866666667     0.316700000000     0.641250000000     0          
O        O      0.035700000000     0.334400000000     0.636825000000     0          
O        O      0.128566666667     0.267200000000     0.595850000000     0          
O        O      0.174033333333     0.287550000000     0.665200000000     0          
O        O      0.311366666667     0.315450000000     0.685575000000     0          
O        O      0.326166666667     0.375000000000     0.678200000000     0          
O        O      0.315833333333     0.494950000000     0.693050000000     0          
O        O      0.022566666667     0.030650000000     0.638975000000     0          
O        O      0.083166666667     0.031350000000     0.587050000000     0          
O        O      0.258333333333     0.212400000000     0.747575000000     0          
O        O      0.226566666667     0.237900000000     0.568750000000     0          
O        O      0.213700000000     0.260900000000     0.734650000000     0          
O        O      0.282566666667     0.266700000000     0.527450000000     0          
O        O      0.323800000000     0.053950000000     0.711400000000     0          
O        O      0.258633333333     0.083650000000     0.688725000000     0          
O        O      0.292466666667     0.089500000000     0.522475000000     0          
O        O      0.242166666667     0.125000000000     0.624225000000     0          
O        O      0.224466666667     0.066700000000     0.608750000000     0          
O        O      0.297633333333     0.084400000000     0.613175000000     0          
O        O      0.204766666667     0.017200000000     0.654150000000     0          
O        O      0.159300000000     0.037550000000     0.584800000000     0          
O        O      0.021966666667     0.065450000000     0.564425000000     0          
O        O      0.007166666667     0.125000000000     0.571800000000     0          
O        O      0.017500000000     0.244950000000     0.556950000000     0          
O        O      0.310766666667     0.280650000000     0.611025000000     0          
O        O      0.250166666667     0.281350000000     0.662950000000     0          
O        O      0.258333333333     0.037600000000     0.747575000000     0          
O        O      0.226566666667     0.012100000000     0.568750000000     0          
O        O      0.213700000000     0.489100000000     0.734650000000     0          
O        O      0.282566666667     0.483300000000     0.527450000000     0          
O        O      0.323800000000     0.196050000000     0.711400000000     0          
O        O      0.258633333333     0.166350000000     0.688725000000     0          
O        O      0.292466666667     0.160500000000     0.522475000000     0          
O        O      0.224466666667     0.183300000000     0.608750000000     0          
O        O      0.297633333333     0.165600000000     0.613175000000     0          
O        O      0.204766666667     0.232800000000     0.654150000000     0          
O        O      0.159300000000     0.212450000000     0.584800000000     0          
O        O      0.021966666667     0.184550000000     0.564425000000     0          
O        O      0.017500000000     0.005050000000     0.556950000000     0          
O        O      0.310766666667     0.469350000000     0.611025000000     0          
O        O      0.250166666667     0.468650000000     0.662950000000     0          
O        O      0.075000000000     0.287600000000     0.502425000000     0          
O        O      0.106766666667     0.262100000000     0.681250000000     0          
O        O      0.119633333333     0.239100000000     0.515350000000     0          
O        O      0.050766666667     0.233300000000     0.722550000000     0          
O        O      0.009533333333     0.446050000000     0.538600000000     0          
O        O      0.074700000000     0.416350000000     0.561275000000     0          
O        O      0.040866666667     0.410500000000     0.727525000000     0          
O        O      0.108866666667     0.433300000000     0.641250000000     0          
O        O      0.035700000000     0.415600000000     0.636825000000     0          
O        O      0.128566666667     0.482800000000     0.595850000000     0          
O        O      0.174033333333     0.462450000000     0.665200000000     0          
O        O      0.311366666667     0.434550000000     0.685575000000     0          
O        O      0.315833333333     0.255050000000     0.693050000000     0          
O        O      0.022566666667     0.219350000000     0.638975000000     0          
O        O      0.083166666667     0.218650000000     0.587050000000     0          
O        O      0.075000000000     0.462400000000     0.752425000000     0          
O        O      0.106766666667     0.487900000000     0.931250000000     0          
O        O      0.119633333333     0.010900000000     0.765350000000     0          
O        O      0.050766666667     0.016700000000     0.972550000000     0          
O        O      0.009533333333     0.303950000000     0.788600000000     0          
O        O      0.074700000000     0.333650000000     0.811275000000     0          
O        O      0.040866666667     0.339500000000     0.977525000000     0          
O        O      0.091166666667     0.375000000000     0.875775000000     0          
O        O      0.108866666667     0.316700000000     0.891250000000     0          
O        O      0.035700000000     0.334400000000     0.886825000000     0          
O        O      0.128566666667     0.267200000000     0.845850000000     0          
O        O      0.174033333333     0.287550000000     0.915200000000     0          
O        O      0.311366666667     0.315450000000     0.935575000000     0          
O        O      0.326166666667     0.375000000000     0.928200000000     0          
O        O      0.315833333333     0.494950000000     0.943050000000     0          
O        O      0.022566666667     0.030650000000     0.888975000000     0          
O        O      0.083166666667     0.031350000000     0.837050000000     0          
O        O      0.258333333333     0.212400000000     0.997575000000     0          
O        O      0.226566666667     0.237900000000     0.818750000000     0          
O        O      0.213700000000     0.260900000000     0.984650000000     0          
O        O      0.282566666667     0.266700000000     0.777450000000     0          
O        O      0.323800000000     0.053950000000     0.961400000000     0          
O        O      0.258633333333     0.083650000000     0.938725000000     0          
O        O      0.292466666667     0.089500000000     0.772475000000     0          
O        O      0.242166666667     0.125000000000     0.874225000000     0          
O        O      0.224466666667     0.066700000000     0.858750000000     0          
O        O      0.297633333333     0.084400000000     0.863175000000     0          
O        O      0.204766666667     0.017200000000     0.904150000000     0          
O        O      0.159300000000     0.037550000000     0.834800000000     0          
O        O      0.021966666667     0.065450000000     0.814425000000     0          
O        O      0.007166666667     0.125000000000     0.821800000000     0          
O        O      0.017500000000     0.244950000000     0.806950000000     0          
O        O      0.310766666667     0.280650000000     0.861025000000     0          
O        O      0.250166666667     0.281350000000     0.912950000000     0          
O        O      0.258333333333     0.037600000000     0.997575000000     0          
O        O      0.226566666667     0.012100000000     0.818750000000     0          
O        O      0.213700000000     0.489100000000     0.984650000000     0          
O        O      0.282566666667     0.483300000000     0.777450000000     0          
O        O      0.323800000000     0.196050000000     0.961400000000     0          
O        O      0.258633333333     0.166350000000     0.938725000000     0          
O        O      0.292466666667     0.160500000000     0.772475000000     0          
O        O      0.224466666667     0.183300000000     0.858750000000     0          
O        O      0.297633333333     0.165600000000     0.863175000000     0          
O        O      0.204766666667     0.232800000000     0.904150000000     0          
O        O      0.159300000000     0.212450000000     0.834800000000     0          
O        O      0.021966666667     0.184550000000     0.814425000000     0          
O        O      0.017500000000     0.005050000000     0.806950000000     0          
O        O      0.310766666667     0.469350000000     0.861025000000     0          
O        O      0.250166666667     0.468650000000     0.912950000000     0          
O        O      0.075000000000     0.287600000000     0.752425000000     0          
O        O      0.106766666667     0.262100000000     0.931250000000     0          
O        O      0.119633333333     0.239100000000     0.765350000000     0          
O        O      0.050766666667     0.233300000000     0.972550000000     0          
O        O      0.009533333333     0.446050000000     0.788600000000     0          
O        O      0.074700000000     0.416350000000     0.811275000000     0          
O        O      0.040866666667     0.410500000000     0.977525000000     0          
O        O      0.108866666667     0.433300000000     0.891250000000     0          
O        O      0.035700000000     0.415600000000     0.886825000000     0          
O        O      0.128566666667     0.482800000000     0.845850000000     0          
O        O      0.174033333333     0.462450000000     0.915200000000     0          
O        O      0.311366666667     0.434550000000     0.935575000000     0          
O        O      0.315833333333     0.255050000000     0.943050000000     0          
O        O      0.022566666667     0.219350000000     0.888975000000     0          
O        O      0.083166666667     0.218650000000     0.837050000000     0          
O        O      0.075000000000     0.962400000000     0.002425000000     0          
O        O      0.106766666667     0.987900000000     0.181250000000     0          
O        O      0.119633333333     0.510900000000     0.015350000000     0          
O        O      0.050766666667     0.516700000000     0.222550000000     0          
O        O      0.009533333333     0.803950000000     0.038600000000     0          
O        O      0.074700000000     0.833650000000     0.061275000000     0          
O        O      0.040866666667     0.839500000000     0.227525000000     0          
O        O      0.091166666667     0.875000000000     0.125775000000     0          
O        O      0.108866666667     0.816700000000     0.141250000000     0          
O        O      0.035700000000     0.834400000000     0.136825000000     0          
O        O      0.128566666667     0.767200000000     0.095850000000     0          
O        O      0.174033333333     0.787550000000     0.165200000000     0          
O        O      0.311366666667     0.815450000000     0.185575000000     0          
O        O      0.326166666667     0.875000000000     0.178200000000     0          
O        O      0.315833333333     0.994950000000     0.193050000000     0          
O        O      0.022566666667     0.530650000000     0.138975000000     0          
O        O      0.083166666667     0.531350000000     0.087050000000     0          
O        O      0.258333333333     0.712400000000     0.247575000000     0          
O        O      0.226566666667     0.737900000000     0.068750000000     0          
O        O      0.213700000000     0.760900000000     0.234650000000     0          
O        O      0.282566666667     0.766700000000     0.027450000000     0          
O        O      0.323800000000     0.553950000000     0.211400000000     0          
O        O      0.258633333333     0.583650000000     0.188725000000     0          
O        O      0.292466666667     0.589500000000     0.022475000000     0          
O        O      0.242166666667     0.625000000000     0.124225000000     0          
O        O      0.224466666667     0.566700000000     0.108750000000     0          
O        O      0.297633333333     0.584400000000     0.113175000000     0          
O        O      0.204766666667     0.517200000000     0.154150000000     0          
O        O      0.159300000000     0.537550000000     0.084800000000     0          
O        O      0.021966666667     0.565450000000     0.064425000000     0          
O        O      0.007166666667     0.625000000000     0.071800000000     0          
O        O      0.017500000000     0.744950000000     0.056950000000     0          
O        O      0.310766666667     0.780650000000     0.111025000000     0          
O        O      0.250166666667     0.781350000000     0.162950000000     0          
O        O      0.258333333333     0.537600000000     0.247575000000     0          
O        O      0.226566666667     0.512100000000     0.068750000000     0          
O        O      0.213700000000     0.989100000000     0.234650000000     0          
O        O      0.282566666667     0.983300000000     0.027450000000     0          
O        O      0.323800000000     0.696050000000     0.211400000000     0          
O        O      0.258633333333     0.666350000000     0.188725000000     0          
O        O      0.292466666667     0.660500000000     0.022475000000     0          
O        O      0.224466666667     0.683300000000     0.108750000000     0          
O        O      0.297633333333     0.665600000000     0.113175000000     0          
O        O      0.204766666667     0.732800000000     0.154150000000     0          
O        O      0.159300000000     0.712450000000     0.084800000000     0          
O        O      0.021966666667     0.684550000000     0.064425000000     0          
O        O      0.017500000000     0.505050000000     0.056950000000     0          
O        O      0.310766666667     0.969350000000     0.111025000000     0          
O        O      0.250166666667     0.968650000000     0.162950000000     0          
O        O      0.075000000000     0.787600000000     0.002425000000     0          
O        O      0.106766666667     0.762100000000     0.181250000000     0          
O        O      0.119633333333     0.739100000000     0.015350000000     0          
O        O      0.050766666667     0.733300000000     0.222550000000     0          
O        O      0.009533333333     0.946050000000     0.038600000000     0          
O        O      0.074700000000     0.916350000000     0.061275000000     0          
O        O      0.040866666667     0.910500000000     0.227525000000     0          
O        O      0.108866666667     0.933300000000     0.141250000000     0          
O        O      0.035700000000     0.915600000000     0.136825000000     0          
O        O      0.128566666667     0.982800000000     0.095850000000     0          
O        O      0.174033333333     0.962450000000     0.165200000000     0          
O        O      0.311366666667     0.934550000000     0.185575000000     0          
O        O      0.315833333333     0.755050000000     0.193050000000     0          
O        O      0.022566666667     0.719350000000     0.138975000000     0          
O        O      0.083166666667     0.718650000000     0.087050000000     0          
O        O      0.075000000000     0.962400000000     0.252425000000     0          
O        O      0.106766666667     0.987900000000     0.431250000000     0          
O        O      0.119633333333     0.510900000000     0.265350000000     0          
O        O      0.050766666667     0.516700000000     0.472550000000     0          
O        O      0.009533333333     0.803950000000     0.288600000000     0          
O        O      0.074700000000     0.833650000000     0.311275000000     0          
O        O      0.040866666667     0.839500000000     0.477525000000     0          
O        O      0.091166666667     0.875000000000     0.375775000000     0          
O        O      0.108866666667     0.816700000000     0.391250000000     0          
O        O      0.035700000000     0.834400000000     0.386825000000     0          
O        O      0.128566666667     0.767200000000     0.345850000000     0          
O        O      0.174033333333     0.787550000000     0.415200000000     0          
O        O      0.311366666667     0.815450000000     0.435575000000     0          
O        O      0.326166666667     0.875000000000     0.428200000000     0          
O        O      0.315833333333     0.994950000000     0.443050000000     0          
O        O      0.022566666667     0.530650000000     0.388975000000     0          
O        O      0.083166666667     0.531350000000     0.337050000000     0          
O        O      0.258333333333     0.712400000000     0.497575000000     0          
O        O      0.226566666667     0.737900000000     0.318750000000     0          
O        O      0.213700000000     0.760900000000     0.484650000000     0          
O        O      0.282566666667     0.766700000000     0.277450000000     0          
O        O      0.323800000000     0.553950000000     0.461400000000     0          
O        O      0.258633333333     0.583650000000     0.438725000000     0          
O        O      0.292466666667     0.589500000000     0.272475000000     0          
O        O      0.242166666667     0.625000000000     0.374225000000     0          
O        O      0.224466666667     0.566700000000     0.358750000000     0          
O        O      0.297633333333     0.584400000000     0.363175000000     0          
O        O      0.204766666667     0.517200000000     0.404150000000     0          
O        O      0.159300000000     0.537550000000     0.334800000000     0          
O        O      0.021966666667     0.565450000000     0.314425000000     0          
O        O      0.007166666667     0.625000000000     0.321800000000     0          
O        O      0.017500000000     0.744950000000     0.306950000000     0          
O        O      0.310766666667     0.780650000000     0.361025000000     0          
O        O      0.250166666667     0.781350000000     0.412950000000     0          
O        O      0.258333333333     0.537600000000     0.497575000000     0          
O        O      0.226566666667     0.512100000000     0.318750000000     0          
O        O      0.213700000000     0.989100000000     0.484650000000     0          
O        O      0.282566666667     0.983300000000     0.277450000000     0          
O        O      0.323800000000     0.696050000000     0.461400000000     0          
O        O      0.258633333333     0.666350000000     0.438725000000     0          
O        O      0.292466666667     0.660500000000     0.272475000000     0          
O        O      0.224466666667     0.683300000000     0.358750000000     0          
O        O      0.297633333333     0.665600000000     0.363175000000     0          
O        O      0.204766666667     0.732800000000     0.404150000000     0          
O        O      0.159300000000     0.712450000000     0.334800000000     0          
O        O      0.021966666667     0.684550000000     0.314425000000     0          
O        O      0.017500000000     0.505050000000     0.306950000000     0          
O        O      0.310766666667     0.969350000000     0.361025000000     0          
O        O      0.250166666667     0.968650000000     0.412950000000     0          
O        O      0.075000000000     0.787600000000     0.252425000000     0          
O        O      0.106766666667     0.762100000000     0.431250000000     0          
O        O      0.119633333333     0.739100000000     0.265350000000     0          
O        O      0.050766666667     0.733300000000     0.472550000000     0          
O        O      0.009533333333     0.946050000000     0.288600000000     0          
O        O      0.074700000000     0.916350000000     0.311275000000     0          
O        O      0.040866666667     0.910500000000     0.477525000000     0          
O        O      0.108866666667     0.933300000000     0.391250000000     0          
O        O      0.035700000000     0.915600000000     0.386825000000     0          
O        O      0.128566666667     0.982800000000     0.345850000000     0          
O        O      0.174033333333     0.962450000000     0.415200000000     0          
O        O      0.311366666667     0.934550000000     0.435575000000     0          
O        O      0.315833333333     0.755050000000     0.443050000000     0          
O        O      0.022566666667     0.719350000000     0.388975000000     0          
O        O      0.083166666667     0.718650000000     0.337050000000     0          
O        O      0.075000000000     0.962400000000     0.502425000000     0          
O        O      0.106766666667     0.987900000000     0.681250000000     0          
O        O      0.119633333333     0.510900000000     0.515350000000     0          
O        O      0.050766666667     0.516700000000     0.722550000000     0          
O        O      0.009533333333     0.803950000000     0.538600000000     0          
O        O      0.074700000000     0.833650000000     0.561275000000     0          
O        O      0.040866666667     0.839500000000     0.727525000000     0          
O        O      0.091166666667     0.875000000000     0.625775000000     0          
O        O      0.108866666667     0.816700000000     0.641250000000     0          
O        O      0.035700000000     0.834400000000     0.636825000000     0          
O        O      0.128566666667     0.767200000000     0.595850000000     0          
O        O      0.174033333333     0.787550000000     0.665200000000     0          
O        O      0.311366666667     0.815450000000     0.685575000000     0          
O        O      0.326166666667     0.875000000000     0.678200000000     0          
O        O      0.315833333333     0.994950000000     0.693050000000     0          
O        O      0.022566666667     0.530650000000     0.638975000000     0          
O        O      0.083166666667     0.531350000000     0.587050000000     0          
O        O      0.258333333333     0.712400000000     0.747575000000     0          
O        O      0.226566666667     0.737900000000     0.568750000000     0          
O        O      0.213700000000     0.760900000000     0.734650000000     0          
O        O      0.282566666667     0.766700000000     0.527450000000     0          
O        O      0.323800000000     0.553950000000     0.711400000000     0          
O        O      0.258633333333     0.583650000000     0.688725000000     0          
O        O      0.292466666667     0.589500000000     0.522475000000     0          
O        O      0.242166666667     0.625000000000     0.624225000000     0          
O        O      0.224466666667     0.566700000000     0.608750000000     0          
O        O      0.297633333333     0.584400000000     0.613175000000     0          
O        O      0.204766666667     0.517200000000     0.654150000000     0          
O        O      0.159300000000     0.537550000000     0.584800000000     0          
O        O      0.021966666667     0.565450000000     0.564425000000     0          
O        O      0.007166666667     0.625000000000     0.571800000000     0          
O        O      0.017500000000     0.744950000000     0.556950000000     0          
O        O      0.310766666667     0.780650000000     0.611025000000     0          
O        O      0.250166666667     0.781350000000     0.662950000000     0          
O        O      0.258333333333     0.537600000000     0.747575000000     0          
O        O      0.226566666667     0.512100000000     0.568750000000     0          
O        O      0.213700000000     0.989100000000     0.734650000000     0          
O        O      0.282566666667     0.983300000000     0.527450000000     0          
O        O      0.323800000000     0.696050000000     0.711400000000     0          
O        O      0.258633333333     0.666350000000     0.688725000000     0          
O        O      0.292466666667     0.660500000000     0.522475000000     0          
O        O      0.224466666667     0.683300000000     0.608750000000     0          
O        O      0.297633333333     0.665600000000     0.613175000000     0          
O        O      0.204766666667     0.732800000000     0.654150000000     0          
O        O      0.159300000000     0.712450000000     0.584800000000     0          
O        O      0.021966666667     0.684550000000     0.564425000000     0          
O        O      0.017500000000     0.505050000000     0.556950000000     0          
O        O      0.310766666667     0.969350000000     0.611025000000     0          
O        O      0.250166666667     0.968650000000     0.662950000000     0          
O        O      0.075000000000     0.787600000000     0.502425000000     0          
O        O      0.106766666667     0.762100000000     0.681250000000     0          
O        O      0.119633333333     0.739100000000     0.515350000000     0          
O        O      0.050766666667     0.733300000000     0.722550000000     0          
O        O      0.009533333333     0.946050000000     0.538600000000     0          
O        O      0.074700000000     0.916350000000     0.561275000000     0          
O        O      0.040866666667     0.910500000000     0.727525000000     0          
O        O      0.108866666667     0.933300000000     0.641250000000     0          
O        O      0.035700000000     0.915600000000     0.636825000000     0          
O        O      0.128566666667     0.982800000000     0.595850000000     0          
O        O      0.174033333333     0.962450000000     0.665200000000     0          
O        O      0.311366666667     0.934550000000     0.685575000000     0          
O        O      0.315833333333     0.755050000000     0.693050000000     0          
O        O      0.022566666667     0.719350000000     0.638975000000     0          
O        O      0.083166666667     0.718650000000     0.587050000000     0          
O        O      0.075000000000     0.962400000000     0.752425000000     0          
O        O      0.106766666667     0.987900000000     0.931250000000     0          
O        O      0.119633333333     0.510900000000     0.765350000000     0          
O        O      0.050766666667     0.516700000000     0.972550000000     0          
O        O      0.009533333333     0.803950000000     0.788600000000     0          
O        O      0.074700000000     0.833650000000     0.811275000000     0          
O        O      0.040866666667     0.839500000000     0.977525000000     0          
O        O      0.091166666667     0.875000000000     0.875775000000     0          
O        O      0.108866666667     0.816700000000     0.891250000000     0          
O        O      0.035700000000     0.834400000000     0.886825000000     0          
O        O      0.128566666667     0.767200000000     0.845850000000     0          
O        O      0.174033333333     0.787550000000     0.915200000000     0          
O        O      0.311366666667     0.815450000000     0.935575000000     0          
O        O      0.326166666667     0.875000000000     0.928200000000     0          
O        O      0.315833333333     0.994950000000     0.943050000000     0          
O        O      0.022566666667     0.530650000000     0.888975000000     0          
O        O      0.083166666667     0.531350000000     0.837050000000     0          
O        O      0.258333333333     0.712400000000     0.997575000000     0          
O        O      0.226566666667     0.737900000000     0.818750000000     0          
O        O      0.213700000000     0.760900000000     0.984650000000     0          
O        O      0.282566666667     0.766700000000     0.777450000000     0          
O        O      0.323800000000     0.553950000000     0.961400000000     0          
O        O      0.258633333333     0.583650000000     0.938725000000     0          
O        O      0.292466666667     0.589500000000     0.772475000000     0          
O        O      0.242166666667     0.625000000000     0.874225000000     0          
O        O      0.224466666667     0.566700000000     0.858750000000     0          
O        O      0.297633333333     0.584400000000     0.863175000000     0          
O        O      0.204766666667     0.517200000000     0.904150000000     0          
O        O      0.159300000000     0.537550000000     0.834800000000     0          
O        O      0.021966666667     0.565450000000     0.814425000000     0          
O        O      0.007166666667     0.625000000000     0.821800000000     0          
O        O      0.017500000000     0.744950000000     0.806950000000     0          
O        O      0.310766666667     0.780650000000     0.861025000000     0          
O        O      0.250166666667     0.781350000000     0.912950000000     0          
O        O      0.258333333333     0.537600000000     0.997575000000     0          
O        O      0.226566666667     0.512100000000     0.818750000000     0          
O        O      0.213700000000     0.989100000000     0.984650000000     0          
O        O      0.282566666667     0.983300000000     0.777450000000     0          
O        O      0.323800000000     0.696050000000     0.961400000000     0          
O        O      0.258633333333     0.666350000000     0.938725000000     0          
O        O      0.292466666667     0.660500000000     0.772475000000     0          
O        O      0.224466666667     0.683300000000     0.858750000000     0          
O        O      0.297633333333     0.665600000000     0.863175000000     0          
O        O      0.204766666667     0.732800000000     0.904150000000     0          
O        O      0.159300000000     0.712450000000     0.834800000000     0          
O        O      0.021966666667     0.684550000000     0.814425000000     0          
O        O      0.017500000000     0.505050000000     0.806950000000     0          
O        O      0.310766666667     0.969350000000     0.861025000000     0          
O        O      0.250166666667     0.968650000000     0.912950000000     0          
O        O      0.075000000000     0.787600000000     0.752425000000     0          
O        O      0.106766666667     0.762100000000     0.931250000000     0          
O        O      0.119633333333     0.739100000000     0.765350000000     0          
O        O      0.050766666667     0.733300000000     0.972550000000     0          
O        O      0.009533333333     0.946050000000     0.788600000000     0          
O        O      0.074700000000     0.916350000000     0.811275000000     0          
O        O      0.040866666667     0.910500000000     0.977525000000     0          
O        O      0.108866666667     0.933300000000     0.891250000000     0          
O        O      0.035700000000     0.915600000000     0.886825000000     0          
O        O      0.128566666667     0.982800000000     0.845850000000     0          
O        O      0.174033333333     0.962450000000     0.915200000000     0          
O        O      0.311366666667     0.934550000000     0.935575000000     0          
O        O      0.315833333333     0.755050000000     0.943050000000     0          
O        O      0.022566666667     0.719350000000     0.888975000000     0          
O        O      0.083166666667     0.718650000000     0.837050000000     0          
O        O      0.408333333333     0.462400000000     0.002425000000     0          
O        O      0.440100000000     0.487900000000     0.181250000000     0          
O        O      0.452966666667     0.010900000000     0.015350000000     0          
O        O      0.384100000000     0.016700000000     0.222550000000     0          
O        O      0.342866666667     0.303950000000     0.038600000000     0          
O        O      0.408033333333     0.333650000000     0.061275000000     0          
O        O      0.374200000000     0.339500000000     0.227525000000     0          
O        O      0.424500000000     0.375000000000     0.125775000000     0          
O        O      0.442200000000     0.316700000000     0.141250000000     0          
O        O      0.369033333333     0.334400000000     0.136825000000     0          
O        O      0.461900000000     0.267200000000     0.095850000000     0          
O        O      0.507366666667     0.287550000000     0.165200000000     0          
O        O      0.644700000000     0.315450000000     0.185575000000     0          
O        O      0.659500000000     0.375000000000     0.178200000000     0          
O        O      0.649166666667     0.494950000000     0.193050000000     0          
O        O      0.355900000000     0.030650000000     0.138975000000     0          
O        O      0.416500000000     0.031350000000     0.087050000000     0          
O        O      0.591666666667     0.212400000000     0.247575000000     0          
O        O      0.559900000000     0.237900000000     0.068750000000     0          
O        O      0.547033333333     0.260900000000     0.234650000000     0          
O        O      0.615900000000     0.266700000000     0.027450000000     0          
O        O      0.657133333333     0.053950000000     0.211400000000     0          
O        O      0.591966666667     0.083650000000     0.188725000000     0          
O        O      0.625800000000     0.089500000000     0.022475000000     0          
O        O      0.575500000000     0.125000000000     0.124225000000     0          
O        O      0.557800000000     0.066700000000     0.108750000000     0          
O        O      0.630966666667     0.084400000000     0.113175000000     0          
O        O      0.538100000000     0.017200000000     0.154150000000     0          
O        O      0.492633333333     0.037550000000     0.084800000000     0          
O        O      0.355300000000     0.065450000000     0.064425000000     0          
O        O      0.340500000000     0.125000000000     0.071800000000     0          
O        O      0.350833333333     0.244950000000     0.056950000000     0          
O        O      0.644100000000     0.280650000000     0.111025000000     0          
O        O      0.583500000000     0.281350000000     0.162950000000     0          
O        O      0.591666666667     0.037600000000     0.247575000000     0          
O        O      0.559900000000     0.012100000000     0.068750000000     0          
O        O      0.547033333333     0.489100000000     0.234650000000     0          
O        O      0.615900000000     0.483300000000     0.027450000000     0          
O        O      0.657133333333     0.196050000000     0.211400000000     0          
O        O      0.591966666667     0.166350000000     0.188725000000     0          
O        O      0.625800000000     0.160500000000     0.022475000000     0          
O        O      0.557800000000     0.183300000000     0.108750000000     0          
O        O      0.630966666667     0.165600000000     0.113175000000     0          
O        O      0.538100000000     0.232800000000     0.154150000000     0          
O        O      0.492633333333     0.212450000000     0.084800000000     0          
O        O      0.355300000000     0.184550000000     0.064425000000     0          
O        O      0.350833333333     0.005050000000     0.056950000000     0          
O        O      0.644100000000     0.469350000000     0.111025000000     0          
O        O      0.583500000000     0.468650000000     0.162950000000     0          
O        O      0.408333333333     0.287600000000     0.002425000000     0          
O        O      0.440100000000     0.262100000000     0.181250000000     0          
O        O      0.452966666667     0.239100000000     0.015350000000     0          
O        O      0.384100000000     0.233300000000     0.222550000000     0          
O        O      0.342866666667     0.446050000000     0.038600000000     0          
O        O      0.408033333333     0.416350000000     0.061275000000     0          
O        O      0.374200000000     0.410500000000     0.227525000000     0          
O        O      0.442200000000     0.433300000000     0.141250000000     0          
O        O      0.369033333333     0.415600000000     0.136825000000     0          
O        O      0.461900000000     0.482800000000     0.095850000000     0          
O        O      0.507366666667     0.462450000000     0.165200000000     0          
O        O      0.644700000000     0.434550000000     0.185575000000     0          
O        O      0.649166666667     0.255050000000     0.193050000000     0          
O        O      0.355900000000     0.219350000000     0.138975000000     0          
O        O      0.416500000000     0.218650000000     0.087050000000     0          
O        O      0.408333333333     0.462400000000     0.252425000000     0          
O        O      0.440100000000     0.487900000000     0.431250000000     0          
O        O      0.452966666667     0.010900000000     0.265350000000     0          
O        O      0.384100000000     0.016700000000     0.472550000000     0          
O        O      0.342866666667     0.303950000000     0.288600000000     0          
O        O      0.408033333333     0.333650000000     0.311275000000     0          
O        O      0.374200000000     0.339500000000     0.477525000000     0          
O        O      0.424500000000     0.375000000000     0.375775000000     0          
O        O      0.442200000000     0.316700000000     0.391250000000     0          
O        O      0.369033333333     0.334400000000     0.386825000000     0          
O        O      0.461900000000     0.267200000000     0.345850000000     0          
O        O      0.507366666667     0.287550000000     0.415200000000     0          
O        O      0.644700000000     0.315450000000     0.435575000000     0          
O        O      0.659500000000     0.375000000000     0.428200000000     0          
O        O      0.649166666667     0.494950000000     0.443050000000     0          
O        O      0.355900000000     0.030650000000     0.388975000000     0          
O        O      0.416500000000     0.031350000000     0.337050000000     0          
O        O      0.591666666667     0.212400000000     0.497575000000     0          
O        O      0.559900000000     0.237900000000     0.318750000000     0          
O        O      0.547033333333     0.260900000000     0.484650000000     0          
O        O      0.615900000000     0.266700000000     0.277450000000     0          
O        O      0.657133333333     0.053950000000     0.461400000000     0          
O        O      0.591966666667     0.083650000000     0.438725000000     0          
O        O      0.625800000000     0.089500000000     0.272475000000     0          
O        O      0.575500000000     0.125000000000     0.374225000000     0          
O        O      0.557800000000     0.066700000000     0.358750000000     0          
O        O      0.630966666667     0.084400000000     0.363175000000     0          
O        O      0.538100000000     0.017200000000     0.404150000000     0          
O        O      0.492633333333     0.037550000000     0.334800000000     0          
O        O      0.355300000000     0.065450000000     0.314425000000     0          
O        O      0.340500000000     0.125000000000     0.321800000000     0          
O        O      0.350833333333     0.244950000000     0.306950000000     0          
O        O      0.644100000000     0.280650000000     0.361025000000     0          
O        O      0.583500000000     0.281350000000     0.412950000000     0          
O        O      0.591666666667     0.037600000000     0.497575000000     0          
O        O      0.559900000000     0.012100000000     0.318750000000     0          
O        O      0.547033333333     0.489100000000     0.484650000000     0          
O        O      0.615900000000     0.483300000000     0.277450000000     0          
O        O      0.657133333333     0.196050000000     0.461400000000     0          
O        O      0.591966666667     0.166350000000     0.438725000000     0          
O        O      0.625800000000     0.160500000000     0.272475000000     0          
O        O      0.557800000000     0.183300000000     0.358750000000     0          
O        O      0.630966666667     0.165600000000     0.363175000000     0          
O        O      0.538100000000     0.232800000000     0.404150000000     0          
O        O      0.492633333333     0.212450000000     0.334800000000     0          
O        O      0.355300000000     0.184550000000     0.314425000000     0          
O        O      0.350833333333     0.005050000000     0.306950000000     0          
O        O      0.644100000000     0.469350000000     0.361025000000     0          
O        O      0.583500000000     0.468650000000     0.412950000000     0          
O        O      0.408333333333     0.287600000000     0.252425000000     0          
O        O      0.440100000000     0.262100000000     0.431250000000     0          
O        O      0.452966666667     0.239100000000     0.265350000000     0          
O        O      0.384100000000     0.233300000000     0.472550000000     0          
O        O      0.342866666667     0.446050000000     0.288600000000     0          
O        O      0.408033333333     0.416350000000     0.311275000000     0          
O        O      0.374200000000     0.410500000000     0.477525000000     0          
O        O      0.442200000000     0.433300000000     0.391250000000     0          
O        O      0.369033333333     0.415600000000     0.386825000000     0          
O        O      0.461900000000     0.482800000000     0.345850000000     0          
O        O      0.507366666667     0.462450000000     0.415200000000     0          
O        O      0.644700000000     0.434550000000     0.435575000000     0          
O        O      0.649166666667     0.255050000000     0.443050000000     0          
O        O      0.355900000000     0.219350000000     0.388975000000     0          
O        O      0.416500000000     0.218650000000     0.337050000000     0          
O        O      0.408333333333     0.462400000000     0.502425000000     0          
O        O      0.440100000000     0.487900000000     0.681250000000     0          
O        O      0.452966666667     0.010900000000     0.515350000000     0          
O        O      0.384100000000     0.016700000000     0.722550000000     0          
O        O      0.342866666667     0.303950000000     0.538600000000     0          
O        O      0.408033333333     0.333650000000     0.561275000000     0          
O        O      0.374200000000     0.339500000000     0.727525000000     0          
O        O      0.424500000000     0.375000000000     0.625775000000     0          
O        O      0.442200000000     0.316700000000     0.641250000000     0          
O        O      0.369033333333     0.334400000000     0.636825000000     0          
O        O      0.461900000000     0.267200000000     0.595850000000     0          
O        O      0.507366666667     0.287550000000     0.665200000000     0          
O        O      0.644700000000     0.315450000000     0.685575000000     0          
O        O      0.659500000000     0.375000000000     0.678200000000     0          
O        O      0.649166666667     0.494950000000     0.693050000000     0          
O        O      0.355900000000     0.030650000000     0.638975000000     0          
O        O      0.416500000000     0.031350000000     0.587050000000     0          
O        O      0.591666666667     0.212400000000     0.747575000000     0          
O        O      0.559900000000     0.237900000000     0.568750000000     0          
O        O      0.547033333333     0.260900000000     0.734650000000     0          
O        O      0.615900000000     0.266700000000     0.527450000000     0          
O        O      0.657133333333     0.053950000000     0.711400000000     0          
O        O      0.591966666667     0.083650000000     0.688725000000     0          
O        O      0.625800000000     0.089500000000     0.522475000000     0          
O        O      0.575500000000     0.125000000000     0.624225000000     0          
O        O      0.557800000000     0.066700000000     0.608750000000     0          
O        O      0.630966666667     0.084400000000     0.613175000000     0          
O        O      0.538100000000     0.017200000000     0.654150000000     0          
O        O      0.492633333333     0.037550000000     0.584800000000     0          
O        O      0.355300000000     0.065450000000     0.564425000000     0          
O        O      0.340500000000     0.125000000000     0.571800000000     0          
O        O      0.350833333333     0.244950000000     0.556950000000     0          
O        O      0.644100000000     0.280650000000     0.611025000000     0          
O        O      0.583500000000     0.281350000000     0.662950000000     0          
O        O      0.591666666667     0.037600000000     0.747575000000     0          
O        O      0.559900000000     0.012100000000     0.568750000000     0          
O        O      0.547033333333     0.489100000000     0.734650000000     0          
O        O      0.615900000000     0.483300000000     0.527450000000     0          
O        O      0.657133333333     0.196050000000     0.711400000000     0          
O        O      0.591966666667     0.166350000000     0.688725000000     0          
O        O      0.625800000000     0.160500000000     0.522475000000     0          
O        O      0.557800000000     0.183300000000     0.608750000000     0          
O        O      0.630966666667     0.165600000000     0.613175000000     0          
O        O      0.538100000000     0.232800000000     0.654150000000     0          
O        O      0.492633333333     0.212450000000     0.584800000000     0          
O        O      0.355300000000     0.184550000000     0.564425000000     0          
O        O      0.350833333333     0.005050000000     0.556950000000     0          
O        O      0.644100000000     0.469350000000     0.611025000000     0          
O        O      0.583500000000     0.468650000000     0.662950000000     0          
O        O      0.408333333333     0.287600000000     0.502425000000     0          
O        O      0.440100000000     0.262100000000     0.681250000000     0          
O        O      0.452966666667     0.239100000000     0.515350000000     0          
O        O      0.384100000000     0.233300000000     0.722550000000     0          
O        O      0.342866666667     0.446050000000     0.538600000000     0          
O        O      0.408033333333     0.416350000000     0.561275000000     0          
O        O      0.374200000000     0.410500000000     0.727525000000     0          
O        O      0.442200000000     0.433300000000     0.641250000000     0          
O        O      0.369033333333     0.415600000000     0.636825000000     0          
O        O      0.461900000000     0.482800000000     0.595850000000     0          
O        O      0.507366666667     0.462450000000     0.665200000000     0          
O        O      0.644700000000     0.434550000000     0.685575000000     0          
O        O      0.649166666667     0.255050000000     0.693050000000     0          
O        O      0.355900000000     0.219350000000     0.638975000000     0          
O        O      0.416500000000     0.218650000000     0.587050000000     0          
O        O      0.408333333333     0.462400000000     0.752425000000     0          
O        O      0.440100000000     0.487900000000     0.931250000000     0          
O        O      0.452966666667     0.010900000000     0.765350000000     0          
O        O      0.384100000000     0.016700000000     0.972550000000     0          
O        O      0.342866666667     0.303950000000     0.788600000000     0          
O        O      0.408033333333     0.333650000000     0.811275000000     0          
O        O      0.374200000000     0.339500000000     0.977525000000     0          
O        O      0.424500000000     0.375000000000     0.875775000000     0          
O        O      0.442200000000     0.316700000000     0.891250000000     0          
O        O      0.369033333333     0.334400000000     0.886825000000     0          
O        O      0.461900000000     0.267200000000     0.845850000000     0          
O        O      0.507366666667     0.287550000000     0.915200000000     0          
O        O      0.644700000000     0.315450000000     0.935575000000     0          
O        O      0.659500000000     0.375000000000     0.928200000000     0          
O        O      0.649166666667     0.494950000000     0.943050000000     0          
O        O      0.355900000000     0.030650000000     0.888975000000     0          
O        O      0.416500000000     0.031350000000     0.837050000000     0          
O        O      0.591666666667     0.212400000000     0.997575000000     0          
O        O      0.559900000000     0.237900000000     0.818750000000     0          
O        O      0.547033333333     0.260900000000     0.984650000000     0          
O        O      0.615900000000     0.266700000000     0.777450000000     0          
O        O      0.657133333333     0.053950000000     0.961400000000     0          
O        O      0.591966666667     0.083650000000     0.938725000000     0          
O        O      0.625800000000     0.089500000000     0.772475000000     0          
O        O      0.575500000000     0.125000000000     0.874225000000     0          
O        O      0.557800000000     0.066700000000     0.858750000000     0          
O        O      0.630966666667     0.084400000000     0.863175000000     0          
O        O      0.538100000000     0.017200000000     0.904150000000     0          
O        O      0.492633333333     0.037550000000     0.834800000000     0          
O        O      0.355300000000     0.065450000000     0.814425000000     0          
O        O      0.340500000000     0.125000000000     0.821800000000     0          
O        O      0.350833333333     0.244950000000     0.806950000000     0          
O        O      0.644100000000     0.280650000000     0.861025000000     0          
O        O      0.583500000000     0.281350000000     0.912950000000     0          
O        O      0.591666666667     0.037600000000     0.997575000000     0          
O        O      0.559900000000     0.012100000000     0.818750000000     0          
O        O      0.547033333333     0.489100000000     0.984650000000     0          
O        O      0.615900000000     0.483300000000     0.777450000000     0          
O        O      0.657133333333     0.196050000000     0.961400000000     0          
O        O      0.591966666667     0.166350000000     0.938725000000     0          
O        O      0.625800000000     0.160500000000     0.772475000000     0          
O        O      0.557800000000     0.183300000000     0.858750000000     0          
O        O      0.630966666667     0.165600000000     0.863175000000     0          
O        O      0.538100000000     0.232800000000     0.904150000000     0          
O        O      0.492633333333     0.212450000000     0.834800000000     0          
O        O      0.355300000000     0.184550000000     0.814425000000     0          
O        O      0.350833333333     0.005050000000     0.806950000000     0          
O        O      0.644100000000     0.469350000000     0.861025000000     0          
O        O      0.583500000000     0.468650000000     0.912950000000     0          
O        O      0.408333333333     0.287600000000     0.752425000000     0          
O        O      0.440100000000     0.262100000000     0.931250000000     0          
O        O      0.452966666667     0.239100000000     0.765350000000     0          
O        O      0.384100000000     0.233300000000     0.972550000000     0          
O        O      0.342866666667     0.446050000000     0.788600000000     0          
O        O      0.408033333333     0.416350000000     0.811275000000     0          
O        O      0.374200000000     0.410500000000     0.977525000000     0          
O        O      0.442200000000     0.433300000000     0.891250000000     0          
O        O      0.369033333333     0.415600000000     0.886825000000     0          
O        O      0.461900000000     0.482800000000     0.845850000000     0          
O        O      0.507366666667     0.462450000000     0.915200000000     0          
O        O      0.644700000000     0.434550000000     0.935575000000     0          
O        O      0.649166666667     0.255050000000     0.943050000000     0          
O        O      0.355900000000     0.219350000000     0.888975000000     0          
O        O      0.416500000000     0.218650000000     0.837050000000     0          
O        O      0.408333333333     0.962400000000     0.002425000000     0          
O        O      0.440100000000     0.987900000000     0.181250000000     0          
O        O      0.452966666667     0.510900000000     0.015350000000     0          
O        O      0.384100000000     0.516700000000     0.222550000000     0          
O        O      0.342866666667     0.803950000000     0.038600000000     0          
O        O      0.408033333333     0.833650000000     0.061275000000     0          
O        O      0.374200000000     0.839500000000     0.227525000000     0          
O        O      0.424500000000     0.875000000000     0.125775000000     0          
O        O      0.442200000000     0.816700000000     0.141250000000     0          
O        O      0.369033333333     0.834400000000     0.136825000000     0          
O        O      0.461900000000     0.767200000000     0.095850000000     0          
O        O      0.507366666667     0.787550000000     0.165200000000     0          
O        O      0.644700000000     0.815450000000     0.185575000000     0          
O        O      0.659500000000     0.875000000000     0.178200000000     0          
O        O      0.649166666667     0.994950000000     0.193050000000     0          
O        O      0.355900000000     0.530650000000     0.138975000000     0          
O        O      0.416500000000     0.531350000000     0.087050000000     0          
O        O      0.591666666667     0.712400000000     0.247575000000     0          
O        O      0.559900000000     0.737900000000     0.068750000000     0          
O        O      0.547033333333     0.760900000000     0.234650000000     0          
O        O      0.615900000000     0.766700000000     0.027450000000     0          
O        O      0.657133333333     0.553950000000     0.211400000000     0          
O        O      0.591966666667     0.583650000000     0.188725000000     0          
O        O      0.625800000000     0.589500000000     0.022475000000     0          
O        O      0.575500000000     0.625000000000     0.124225000000     0          
O        O      0.557800000000     0.566700000000     0.108750000000     0          
O        O      0.630966666667     0.584400000000     0.113175000000     0          
O        O      0.538100000000     0.517200000000     0.154150000000     0          
O        O      0.492633333333     0.537550000000     0.084800000000     0          
O        O      0.355300000000     0.565450000000     0.064425000000     0          
O        O      0.340500000000     0.625000000000     0.071800000000     0          
O        O      0.350833333333     0.744950000000     0.056950000000     0          
O        O      0.644100000000     0.780650000000     0.111025000000     0          
O        O      0.583500000000     0.781350000000     0.162950000000     0          
O        O      0.591666666667     0.537600000000     0.247575000000     0          
O        O      0.559900000000     0.512100000000     0.068750000000     0          
O        O      0.547033333333     0.989100000000     0.234650000000     0          
O        O      0.615900000000     0.983300000000     0.027450000000     0          
O        O      0.657133333333     0.696050000000     0.211400000000     0          
O        O      0.591966666667     0.666350000000     0.188725000000     0          
O        O      0.625800000000     0.660500000000     0.022475000000     0          
O        O      0.557800000000     0.683300000000     0.108750000000     0          
O        O      0.630966666667     0.665600000000     0.113175000000     0          
O        O      0.538100000000     0.732800000000     0.154150000000     0          
O        O      0.492633333333     0.712450000000     0.084800000000     0          
O        O      0.355300000000     0.684550000000     0.064425000000     0          
O        O      0.350833333333     0.505050000000     0.056950000000     0          
O        O      0.644100000000     0.969350000000     0.111025000000     0          
O        O      0.583500000000     0.968650000000     0.162950000000     0          
O        O      0.408333333333     0.787600000000     0.002425000000     0          
O        O      0.440100000000     0.762100000000     0.181250000000     0          
O        O      0.452966666667     0.739100000000     0.015350000000     0          
O        O      0.384100000000     0.733300000000     0.222550000000     0          
O        O      0.342866666667     0.946050000000     0.038600000000     0          
O        O      0.408033333333     0.916350000000     0.061275000000     0          
O        O      0.374200000000     0.910500000000     0.227525000000     0          
O        O      0.442200000000     0.933300000000     0.141250000000     0          
O        O      0.369033333333     0.915600000000     0.136825000000     0          
O        O      0.461900000000     0.982800000000     0.095850000000     0          
O        O      0.507366666667     0.962450000000     0.165200000000     0          
O        O      0.644700000000     0.934550000000     0.185575000000     0          
O        O      0.649166666667     0.755050000000     0.193050000000     0          
O        O      0.355900000000     0.719350000000     0.138975000000     0          
O        O      0.416500000000     0.718650000000     0.087050000000     0          
O        O      0.408333333333     0.962400000000     0.252425000000     0          
O        O      0.440100000000     0.987900000000     0.431250000000     0          
O        O      0.452966666667     0.510900000000     0.265350000000     0          
O        O      0.384100000000     0.516700000000     0.472550000000     0          
O        O      0.342866666667     0.803950000000     0.288600000000     0          
O        O      0.408033333333     0.833650000000     0.311275000000     0          
O        O      0.374200000000     0.839500000000     0.477525000000     0          
O        O      0.424500000000     0.875000000000     0.375775000000     0          
O        O      0.442200000000     0.816700000000     0.391250000000     0          
O        O      0.369033333333     0.834400000000     0.386825000000     0          
O        O      0.461900000000     0.767200000000     0.345850000000     0          
O        O      0.507366666667     0.787550000000     0.415200000000     0          
O        O      0.644700000000     0.815450000000     0.435575000000     0          
O        O      0.659500000000     0.875000000000     0.428200000000     0          
O        O      0.649166666667     0.994950000000     0.443050000000     0          
O        O      0.355900000000     0.530650000000     0.388975000000     0          
O        O      0.416500000000     0.531350000000     0.337050000000     0          
O        O      0.591666666667     0.712400000000     0.497575000000     0          
O        O      0.559900000000     0.737900000000     0.318750000000     0          
O        O      0.547033333333     0.760900000000     0.484650000000     0          
O        O      0.615900000000     0.766700000000     0.277450000000     0          
O        O      0.657133333333     0.553950000000     0.461400000000     0          
O        O      0.591966666667     0.583650000000     0.438725000000     0          
O        O      0.625800000000     0.589500000000     0.272475000000     0          
O        O      0.575500000000     0.625000000000     0.374225000000     0          
O        O      0.557800000000     0.566700000000     0.358750000000     0          
O        O      0.630966666667     0.584400000000     0.363175000000     0          
O        O      0.538100000000     0.517200000000     0.404150000000     0          
O        O      0.492633333333     0.537550000000     0.334800000000     0          
O        O      0.355300000000     0.565450000000     0.314425000000     0          
O        O      0.340500000000     0.625000000000     0.321800000000     0          
O        O      0.350833333333     0.744950000000     0.306950000000     0          
O        O      0.644100000000     0.780650000000     0.361025000000     0          
O        O      0.583500000000     0.781350000000     0.412950000000     0          
O        O      0.591666666667     0.537600000000     0.497575000000     0          
O        O      0.559900000000     0.512100000000     0.318750000000     0          
O        O      0.547033333333     0.989100000000     0.484650000000     0          
O        O      0.615900000000     0.983300000000     0.277450000000     0          
O        O      0.657133333333     0.696050000000     0.461400000000     0          
O        O      0.591966666667     0.666350000000     0.438725000000     0          
O        O      0.625800000000     0.660500000000     0.272475000000     0          
O        O      0.557800000000     0.683300000000     0.358750000000     0          
O        O      0.630966666667     0.665600000000     0.363175000000     0          
O        O      0.538100000000     0.732800000000     0.404150000000     0          
O        O      0.492633333333     0.712450000000     0.334800000000     0          
O        O      0.355300000000     0.684550000000     0.314425000000     0          
O        O      0.350833333333     0.505050000000     0.306950000000     0          
O        O      0.644100000000     0.969350000000     0.361025000000     0          
O        O      0.583500000000     0.968650000000     0.412950000000     0          
O        O      0.408333333333     0.787600000000     0.252425000000     0          
O        O      0.440100000000     0.762100000000     0.431250000000     0          
O        O      0.452966666667     0.739100000000     0.265350000000     0          
O        O      0.384100000000     0.733300000000     0.472550000000     0          
O        O      0.342866666667     0.946050000000     0.288600000000     0          
O        O      0.408033333333     0.916350000000     0.311275000000     0          
O        O      0.374200000000     0.910500000000     0.477525000000     0          
O        O      0.442200000000     0.933300000000     0.391250000000     0          
O        O      0.369033333333     0.915600000000     0.386825000000     0          
O        O      0.461900000000     0.982800000000     0.345850000000     0          
O        O      0.507366666667     0.962450000000     0.415200000000     0          
O        O      0.644700000000     0.934550000000     0.435575000000     0          
O        O      0.649166666667     0.755050000000     0.443050000000     0          
O        O      0.355900000000     0.719350000000     0.388975000000     0          
O        O      0.416500000000     0.718650000000     0.337050000000     0          
O        O      0.408333333333     0.962400000000     0.502425000000     0          
O        O      0.440100000000     0.987900000000     0.681250000000     0          
O        O      0.452966666667     0.510900000000     0.515350000000     0          
O        O      0.384100000000     0.516700000000     0.722550000000     0          
O        O      0.342866666667     0.803950000000     0.538600000000     0          
O        O      0.408033333333     0.833650000000     0.561275000000     0          
O        O      0.374200000000     0.839500000000     0.727525000000     0          
O        O      0.424500000000     0.875000000000     0.625775000000     0          
O        O      0.442200000000     0.816700000000     0.641250000000     0          
O        O      0.369033333333     0.834400000000     0.636825000000     0          
O        O      0.461900000000     0.767200000000     0.595850000000     0          
O        O      0.507366666667     0.787550000000     0.665200000000     0          
O        O      0.644700000000     0.815450000000     0.685575000000     0          
O        O      0.659500000000     0.875000000000     0.678200000000     0          
O        O      0.649166666667     0.994950000000     0.693050000000     0          
O        O      0.355900000000     0.530650000000     0.638975000000     0          
O        O      0.416500000000     0.531350000000     0.587050000000     0          
O        O      0.591666666667     0.712400000000     0.747575000000     0          
O        O      0.559900000000     0.737900000000     0.568750000000     0          
O        O      0.547033333333     0.760900000000     0.734650000000     0          
O        O      0.615900000000     0.766700000000     0.527450000000     0          
O        O      0.657133333333     0.553950000000     0.711400000000     0          
O        O      0.591966666667     0.583650000000     0.688725000000     0          
O        O      0.625800000000     0.589500000000     0.522475000000     0          
O        O      0.575500000000     0.625000000000     0.624225000000     0          
O        O      0.557800000000     0.566700000000     0.608750000000     0          
O        O      0.630966666667     0.584400000000     0.613175000000     0          
O        O      0.538100000000     0.517200000000     0.654150000000     0          
O        O      0.492633333333     0.537550000000     0.584800000000     0          
O        O      0.355300000000     0.565450000000     0.564425000000     0          
O        O      0.340500000000     0.625000000000     0.571800000000     0          
O        O      0.350833333333     0.744950000000     0.556950000000     0          
O        O      0.644100000000     0.780650000000     0.611025000000     0          
O        O      0.583500000000     0.781350000000     0.662950000000     0          
O        O      0.591666666667     0.537600000000     0.747575000000     0          
O        O      0.559900000000     0.512100000000     0.568750000000     0          
O        O      0.547033333333     0.989100000000     0.734650000000     0          
O        O      0.615900000000     0.983300000000     0.527450000000     0          
O        O      0.657133333333     0.696050000000     0.711400000000     0          
O        O      0.591966666667     0.666350000000     0.688725000000     0          
O        O      0.625800000000     0.660500000000     0.522475000000     0          
O        O      0.557800000000     0.683300000000     0.608750000000     0          
O        O      0.630966666667     0.665600000000     0.613175000000     0          
O        O      0.538100000000     0.732800000000     0.654150000000     0          
O        O      0.492633333333     0.712450000000     0.584800000000     0          
O        O      0.355300000000     0.684550000000     0.564425000000     0          
O        O      0.350833333333     0.505050000000     0.556950000000     0          
O        O      0.644100000000     0.969350000000     0.611025000000     0          
O        O      0.583500000000     0.968650000000     0.662950000000     0          
O        O      0.408333333333     0.787600000000     0.502425000000     0          
O        O      0.440100000000     0.762100000000     0.681250000000     0          
O        O      0.452966666667     0.739100000000     0.515350000000     0          
O        O      0.384100000000     0.733300000000     0.722550000000     0          
O        O      0.342866666667     0.946050000000     0.538600000000     0          
O        O      0.408033333333     0.916350000000     0.561275000000     0          
O        O      0.374200000000     0.910500000000     0.727525000000     0          
O        O      0.442200000000     0.933300000000     0.641250000000     0          
O        O      0.369033333333     0.915600000000     0.636825000000     0          
O        O      0.461900000000     0.982800000000     0.595850000000     0          
O        O      0.507366666667     0.962450000000     0.665200000000     0          
O        O      0.644700000000     0.934550000000     0.685575000000     0          
O        O      0.649166666667     0.755050000000     0.693050000000     0          
O        O      0.355900000000     0.719350000000     0.638975000000     0          
O        O      0.416500000000     0.718650000000     0.587050000000     0          
O        O      0.408333333333     0.962400000000     0.752425000000     0          
O        O      0.440100000000     0.987900000000     0.931250000000     0          
O        O      0.452966666667     0.510900000000     0.765350000000     0          
O        O      0.384100000000     0.516700000000     0.972550000000     0          
O        O      0.342866666667     0.803950000000     0.788600000000     0          
O        O      0.408033333333     0.833650000000     0.811275000000     0          
O        O      0.374200000000     0.839500000000     0.977525000000     0          
O        O      0.424500000000     0.875000000000     0.875775000000     0          
O        O      0.442200000000     0.816700000000     0.891250000000     0          
O        O      0.369033333333     0.834400000000     0.886825000000     0          
O        O      0.461900000000     0.767200000000     0.845850000000     0          
O        O      0.507366666667     0.787550000000     0.915200000000     0          
O        O      0.644700000000     0.815450000000     0.935575000000     0          
O        O      0.659500000000     0.875000000000     0.928200000000     0          
O        O      0.649166666667     0.994950000000     0.943050000000     0          
O        O      0.355900000000     0.530650000000     0.888975000000     0          
O        O      0.416500000000     0.531350000000     0.837050000000     0          
O        O      0.591666666667     0.712400000000     0.997575000000     0          
O        O      0.559900000000     0.737900000000     0.818750000000     0          
O        O      0.547033333333     0.760900000000     0.984650000000     0          
O        O      0.615900000000     0.766700000000     0.777450000000     0          
O        O      0.657133333333     0.553950000000     0.961400000000     0          
O        O      0.591966666667     0.583650000000     0.938725000000     0          
O        O      0.625800000000     0.589500000000     0.772475000000     0          
O        O      0.575500000000     0.625000000000     0.874225000000     0          
O        O      0.557800000000     0.566700000000     0.858750000000     0          
O        O      0.630966666667     0.584400000000     0.863175000000     0          
O        O      0.538100000000     0.517200000000     0.904150000000     0          
O        O      0.492633333333     0.537550000000     0.834800000000     0          
O        O      0.355300000000     0.565450000000     0.814425000000     0          
O        O      0.340500000000     0.625000000000     0.821800000000     0          
O        O      0.350833333333     0.744950000000     0.806950000000     0          
O        O      0.644100000000     0.780650000000     0.861025000000     0          
O        O      0.583500000000     0.781350000000     0.912950000000     0          
O        O      0.591666666667     0.537600000000     0.997575000000     0          
O        O      0.559900000000     0.512100000000     0.818750000000     0          
O        O      0.547033333333     0.989100000000     0.984650000000     0          
O        O      0.615900000000     0.983300000000     0.777450000000     0          
O        O      0.657133333333     0.696050000000     0.961400000000     0          
O        O      0.591966666667     0.666350000000     0.938725000000     0          
O        O      0.625800000000     0.660500000000     0.772475000000     0          
O        O      0.557800000000     0.683300000000     0.858750000000     0          
O        O      0.630966666667     0.665600000000     0.863175000000     0          
O        O      0.538100000000     0.732800000000     0.904150000000     0          
O        O      0.492633333333     0.712450000000     0.834800000000     0          
O        O      0.355300000000     0.684550000000     0.814425000000     0          
O        O      0.350833333333     0.505050000000     0.806950000000     0          
O        O      0.644100000000     0.969350000000     0.861025000000     0          
O        O      0.583500000000     0.968650000000     0.912950000000     0          
O        O      0.408333333333     0.787600000000     0.752425000000     0          
O        O      0.440100000000     0.762100000000     0.931250000000     0          
O        O      0.452966666667     0.739100000000     0.765350000000     0          
O        O      0.384100000000     0.733300000000     0.972550000000     0          
O        O      0.342866666667     0.946050000000     0.788600000000     0          
O        O      0.408033333333     0.916350000000     0.811275000000     0          
O        O      0.374200000000     0.910500000000     0.977525000000     0          
O        O      0.442200000000     0.933300000000     0.891250000000     0          
O        O      0.369033333333     0.915600000000     0.886825000000     0          
O        O      0.461900000000     0.982800000000     0.845850000000     0          
O        O      0.507366666667     0.962450000000     0.915200000000     0          
O        O      0.644700000000     0.934550000000     0.935575000000     0          
O        O      0.649166666667     0.755050000000     0.943050000000     0          
O        O      0.355900000000     0.719350000000     0.888975000000     0          
O        O      0.416500000000     0.718650000000     0.837050000000     0          
O        O      0.741666666667     0.462400000000     0.002425000000     0          
O        O      0.773433333333     0.487900000000     0.181250000000     0          
O        O      0.786300000000     0.010900000000     0.015350000000     0          
O        O      0.717433333333     0.016700000000     0.222550000000     0          
O        O      0.676200000000     0.303950000000     0.038600000000     0          
O        O      0.741366666667     0.333650000000     0.061275000000     0          
O        O      0.707533333333     0.339500000000     0.227525000000     0          
O        O      0.757833333333     0.375000000000     0.125775000000     0          
O        O      0.775533333333     0.316700000000     0.141250000000     0          
O        O      0.702366666667     0.334400000000     0.136825000000     0          
O        O      0.795233333333     0.267200000000     0.095850000000     0          
O        O      0.840700000000     0.287550000000     0.165200000000     0          
O        O      0.978033333333     0.315450000000     0.185575000000     0          
O        O      0.992833333333     0.375000000000     0.178200000000     0          
O        O      0.982500000000     0.494950000000     0.193050000000     0          
O        O      0.689233333333     0.030650000000     0.138975000000     0          
O        O      0.749833333333     0.031350000000     0.087050000000     0          
O        O      0.925000000000     0.212400000000     0.247575000000     0          
O        O      0.893233333333     0.237900000000     0.068750000000     0          
O        O      0.880366666667     0.260900000000     0.234650000000     0          
O        O      0.949233333333     0.266700000000     0.027450000000     0          
O        O      0.990466666667     0.053950000000     0.211400000000     0          
O        O      0.925300000000     0.083650000000     0.188725000000     0          
O        O      0.959133333333     0.089500000000     0.022475000000     0          
O        O      0.908833333333     0.125000000000     0.124225000000     0          
O        O      0.891133333333     0.066700000000     0.108750000000     0          
O        O      0.964300000000     0.084400000000     0.113175000000     0          
O        O      0.871433333333     0.017200000000     0.154150000000     0          
O        O      0.825966666667     0.037550000000     0.084800000000     0          
O        O      0.688633333333     0.065450000000     0.064425000000     0          
O        O      0.673833333333     0.125000000000     0.071800000000     0          
O        O      0.684166666667     0.244950000000     0.056950000000     0          
O        O      0.977433333333     0.280650000000     0.111025000000     0          
O        O      0.916833333333     0.281350000000     0.162950000000     0          
O        O      0.925000000000     0.037600000000     0.247575000000     0          
O        O      0.893233333333     0.012100000000     0.068750000000     0          
O        O      0.880366666667     0.489100000000     0.234650000000     0          
O        O      0.949233333333     0.483300000000     0.027450000000     0          
O        O      0.990466666667     0.196050000000     0.211400000000     0          
O        O      0.925300000000     0.166350000000     0.188725000000     0          
O        O      0.959133333333     0.160500000000     0.022475000000     0          
O        O      0.891133333333     0.183300000000     0.108750000000     0          
O        O      0.964300000000     0.165600000000     0.113175000000     0          
O        O      0.871433333333     0.232800000000     0.154150000000     0          
O        O      0.825966666667     0.212450000000     0.084800000000     0          
O        O      0.688633333333     0.184550000000     0.064425000000     0          
O        O      0.684166666667     0.005050000000     0.056950000000     0          
O        O      0.977433333333     0.469350000000     0.111025000000     0          
O        O      0.916833333333     0.468650000000     0.162950000000     0          
O        O      0.741666666667     0.287600000000     0.002425000000     0          
O        O      0.773433333333     0.262100000000     0.181250000000     0          
O        O      0.786300000000     0.239100000000     0.015350000000     0          
O        O      0.717433333333     0.233300000000     0.222550000000     0          
O        O      0.676200000000     0.446050000000     0.038600000000     0          
O        O      0.741366666667     0.416350000000     0.061275000000     0          
O        O      0.707533333333     0.410500000000     0.227525000000     0          
O        O      0.775533333333     0.433300000000     0.141250000000     0          
O        O      0.702366666667     0.415600000000     0.136825000000     0          
O        O      0.795233333333     0.482800000000     0.095850000000     0          
O        O      0.840700000000     0.462450000000     0.165200000000     0          
O        O      0.978033333333     0.434550000000     0.185575000000     0          
O        O      0.982500000000     0.255050000000     0.193050000000     0          
O        O      0.689233333333     0.219350000000     0.138975000000     0          
O        O      0.749833333333     0.218650000000     0.087050000000     0          
O        O      0.741666666667     0.462400000000     0.252425000000     0          
O        O      0.773433333333     0.487900000000     0.431250000000     0          
O        O      0.786300000000     0.010900000000     0.265350000000     0          
O        O      0.717433333333     0.016700000000     0.472550000000     0          
O        O      0.676200000000     0.303950000000     0.288600000000     0          
O        O      0.741366666667     0.333650000000     0.311275000000     0          
O        O      0.707533333333     0.339500000000     0.477525000000     0          
O        O      0.757833333333     0.375000000000     0.375775000000     0          
O        O      0.775533333333     0.316700000000     0.391250000000     0          
O        O      0.702366666667     0.334400000000     0.386825000000     0          
O        O      0.795233333333     0.267200000000     0.345850000000     0          
O        O      0.840700000000     0.287550000000     0.415200000000     0          
O        O      0.978033333333     0.315450000000     0.435575000000     0          
O        O      0.992833333333     0.375000000000     0.428200000000     0          
O        O      0.982500000000     0.494950000000     0.443050000000     0          
O        O      0.689233333333     0.030650000000     0.388975000000     0          
O        O      0.749833333333     0.031350000000     0.337050000000     0          
O        O      0.925000000000     0.212400000000     0.497575000000     0          
O        O      0.893233333333     0.237900000000     0.318750000000     0          
O        O      0.880366666667     0.260900000000     0.484650000000     0          
O        O      0.949233333333     0.266700000000     0.277450000000     0          
O        O      0.990466666667     0.053950000000     0.461400000000     0          
O        O      0.925300000000     0.083650000000     0.438725000000     0          
O        O      0.959133333333     0.089500000000     0.272475000000     0          
O        O      0.908833333333     0.125000000000     0.374225000000     0          
O        O      0.891133333333     0.066700000000     0.358750000000     0          
O        O      0.964300000000     0.084400000000     0.363175000000     0          
O        O      0.871433333333     0.017200000000     0.404150000000     0          
O        O      0.825966666667     0.037550000000     0.334800000000     0          
O        O      0.688633333333     0.065450000000     0.314425000000     0          
O        O      0.673833333333     0.125000000000     0.321800000000     0          
O        O      0.684166666667     0.244950000000     0.306950000000     0          
O        O      0.977433333333     0.280650000000     0.361025000000     0          
O        O      0.916833333333     0.281350000000     0.412950000000     0          
O        O      0.925000000000     0.037600000000     0.497575000000     0          
O        O      0.893233333333     0.012100000000     0.318750000000     0          
O        O      0.880366666667     0.489100000000     0.484650000000     0          
O        O      0.949233333333     0.483300000000     0.277450000000     0          
O        O      0.990466666667     0.196050000000     0.461400000000     0          
O        O      0.925300000000     0.166350000000     0.438725000000     0          
O        O      0.959133333333     0.160500000000     0.272475000000     0          
O        O      0.891133333333     0.183300000000     0.358750000000     0          
O        O      0.964300000000     0.165600000000     0.363175000000     0          
O        O      0.871433333333     0.232800000000     0.404150000000     0          
O        O      0.825966666667     0.212450000000     0.334800000000     0          
O        O      0.688633333333     0.184550000000     0.314425000000     0          
O        O      0.684166666667     0.005050000000     0.306950000000     0          
O        O      0.977433333333     0.469350000000     0.361025000000     0          
O        O      0.916833333333     0.468650000000     0.412950000000     0          
O        O      0.741666666667     0.287600000000     0.252425000000     0          
O        O      0.773433333333     0.262100000000     0.431250000000     0          
O        O      0.786300000000     0.239100000000     0.265350000000     0          
O        O      0.717433333333     0.233300000000     0.472550000000     0          
O        O      0.676200000000     0.446050000000     0.288600000000     0          
O        O      0.741366666667     0.416350000000     0.311275000000     0          
O        O      0.707533333333     0.410500000000     0.477525000000     0          
O        O      0.775533333333     0.433300000000     0.391250000000     0          
O        O      0.702366666667     0.415600000000     0.386825000000     0          
O        O      0.795233333333     0.482800000000     0.345850000000     0          
O        O      0.840700000000     0.462450000000     0.415200000000     0          
O        O      0.978033333333     0.434550000000     0.435575000000     0          
O        O      0.982500000000     0.255050000000     0.443050000000     0          
O        O      0.689233333333     0.219350000000     0.388975000000     0          
O        O      0.749833333333     0.218650000000     0.337050000000     0          
O        O      0.741666666667     0.462400000000     0.502425000000     0          
O        O      0.773433333333     0.487900000000     0.681250000000     0          
O        O      0.786300000000     0.010900000000     0.515350000000     0          
O        O      0.717433333333     0.016700000000     0.722550000000     0          
O        O      0.676200000000     0.303950000000     0.538600000000     0          
O        O      0.741366666667     0.333650000000     0.561275000000     0          
O        O      0.707533333333     0.339500000000     0.727525000000     0          
O        O      0.757833333333     0.375000000000     0.625775000000     0          
O        O      0.775533333333     0.316700000000     0.641250000000     0          
O        O      0.702366666667     0.334400000000     0.636825000000     0          
O        O      0.795233333333     0.267200000000     0.595850000000     0          
O        O      0.840700000000     0.287550000000     0.665200000000     0          
O        O      0.978033333333     0.315450000000     0.685575000000     0          
O        O      0.992833333333     0.375000000000     0.678200000000     0          
O        O      0.982500000000     0.494950000000     0.693050000000     0          
O        O      0.689233333333     0.030650000000     0.638975000000     0          
O        O      0.749833333333     0.031350000000     0.587050000000     0          
O        O      0.925000000000     0.212400000000     0.747575000000     0          
O        O      0.893233333333     0.237900000000     0.568750000000     0          
O        O      0.880366666667     0.260900000000     0.734650000000     0          
O        O      0.949233333333     0.266700000000     0.527450000000     0          
O        O      0.990466666667     0.053950000000     0.711400000000     0          
O        O      0.925300000000     0.083650000000     0.688725000000     0          
O        O      0.959133333333     0.089500000000     0.522475000000     0          
O        O      0.908833333333     0.125000000000     0.624225000000     0          
O        O      0.891133333333     0.066700000000     0.608750000000     0          
O        O      0.964300000000     0.084400000000     0.613175000000     0          
O        O      0.871433333333     0.017200000000     0.654150000000     0          
O        O      0.825966666667     0.037550000000     0.584800000000     0          
O        O      0.688633333333     0.065450000000     0.564425000000     0          
O        O      0.673833333333     0.125000000000     0.571800000000     0          
O        O      0.684166666667     0.244950000000     0.556950000000     0          
O        O      0.977433333333     0.280650000000     0.611025000000     0          
O        O      0.916833333333     0.281350000000     0.662950000000     0          
O        O      0.925000000000     0.037600000000     0.747575000000     0          
O        O      0.893233333333     0.012100000000     0.568750000000     0          
O        O      0.880366666667     0.489100000000     0.734650000000     0          
O        O      0.949233333333     0.483300000000     0.527450000000     0          
O        O      0.990466666667     0.196050000000     0.711400000000     0          
O        O      0.925300000000     0.166350000000     0.688725000000     0          
O        O      0.959133333333     0.160500000000     0.522475000000     0          
O        O      0.891133333333     0.183300000000     0.608750000000     0          
O        O      0.964300000000     0.165600000000     0.613175000000     0          
O        O      0.871433333333     0.232800000000     0.654150000000     0          
O        O      0.825966666667     0.212450000000     0.584800000000     0          
O        O      0.688633333333     0.184550000000     0.564425000000     0          
O        O      0.684166666667     0.005050000000     0.556950000000     0          
O        O      0.977433333333     0.469350000000     0.611025000000     0          
O        O      0.916833333333     0.468650000000     0.662950000000     0          
O        O      0.741666666667     0.287600000000     0.502425000000     0          
O        O      0.773433333333     0.262100000000     0.681250000000     0          
O        O      0.786300000000     0.239100000000     0.515350000000     0          
O        O      0.717433333333     0.233300000000     0.722550000000     0          
O        O      0.676200000000     0.446050000000     0.538600000000     0          
O        O      0.741366666667     0.416350000000     0.561275000000     0          
O        O      0.707533333333     0.410500000000     0.727525000000     0          
O        O      0.775533333333     0.433300000000     0.641250000000     0          
O        O      0.702366666667     0.415600000000     0.636825000000     0          
O        O      0.795233333333     0.482800000000     0.595850000000     0          
O        O      0.840700000000     0.462450000000     0.665200000000     0          
O        O      0.978033333333     0.434550000000     0.685575000000     0          
O        O      0.982500000000     0.255050000000     0.693050000000     0          
O        O      0.689233333333     0.219350000000     0.638975000000     0          
O        O      0.749833333333     0.218650000000     0.587050000000     0          
O        O      0.741666666667     0.462400000000     0.752425000000     0          
O        O      0.773433333333     0.487900000000     0.931250000000     0          
O        O      0.786300000000     0.010900000000     0.765350000000     0          
O        O      0.717433333333     0.016700000000     0.972550000000     0          
O        O      0.676200000000     0.303950000000     0.788600000000     0          
O        O      0.741366666667     0.333650000000     0.811275000000     0          
O        O      0.707533333333     0.339500000000     0.977525000000     0          
O        O      0.757833333333     0.375000000000     0.875775000000     0          
O        O      0.775533333333     0.316700000000     0.891250000000     0          
O        O      0.702366666667     0.334400000000     0.886825000000     0          
O        O      0.795233333333     0.267200000000     0.845850000000     0          
O        O      0.840700000000     0.287550000000     0.915200000000     0          
O        O      0.978033333333     0.315450000000     0.935575000000     0          
O        O      0.992833333333     0.375000000000     0.928200000000     0          
O        O      0.982500000000     0.494950000000     0.943050000000     0          
O        O      0.689233333333     0.030650000000     0.888975000000     0          
O        O      0.749833333333     0.031350000000     0.837050000000     0          
O        O      0.925000000000     0.212400000000     0.997575000000     0          
O        O      0.893233333333     0.237900000000     0.818750000000     0          
O        O      0.880366666667     0.260900000000     0.984650000000     0          
O        O      0.949233333333     0.266700000000     0.777450000000     0          
O        O      0.990466666667     0.053950000000     0.961400000000     0          
O        O      0.925300000000     0.083650000000     0.938725000000     0          
O        O      0.959133333333     0.089500000000     0.772475000000     0          
O        O      0.908833333333     0.125000000000     0.874225000000     0          
O        O      0.891133333333     0.066700000000     0.858750000000     0          
O        O      0.964300000000     0.084400000000     0.863175000000     0          
O        O      0.871433333333     0.017200000000     0.904150000000     0          
O        O      0.825966666667     0.037550000000     0.834800000000     0          
O        O      0.688633333333     0.065450000000     0.814425000000     0          
O        O      0.673833333333     0.125000000000     0.821800000000     0          
O        O      0.684166666667     0.244950000000     0.806950000000     0          
O        O      0.977433333333     0.280650000000     0.861025000000     0          
O        O      0.916833333333     0.281350000000     0.912950000000     0          
O        O      0.925000000000     0.037600000000     0.997575000000     0          
O        O      0.893233333333     0.012100000000     0.818750000000     0          
O        O      0.880366666667     0.489100000000     0.984650000000     0          
O        O      0.949233333333     0.483300000000     0.777450000000     0          
O        O      0.990466666667     0.196050000000     0.961400000000     0          
O        O      0.925300000000     0.166350000000     0.938725000000     0          
O        O      0.959133333333     0.160500000000     0.772475000000     0          
O        O      0.891133333333     0.183300000000     0.858750000000     0          
O        O      0.964300000000     0.165600000000     0.863175000000     0          
O        O      0.871433333333     0.232800000000     0.904150000000     0          
O        O      0.825966666667     0.212450000000     0.834800000000     0          
O        O      0.688633333333     0.184550000000     0.814425000000     0          
O        O      0.684166666667     0.005050000000     0.806950000000     0          
O        O      0.977433333333     0.469350000000     0.861025000000     0          
O        O      0.916833333333     0.468650000000     0.912950000000     0          
O        O      0.741666666667     0.287600000000     0.752425000000     0          
O        O      0.773433333333     0.262100000000     0.931250000000     0          
O        O      0.786300000000     0.239100000000     0.765350000000     0          
O        O      0.717433333333     0.233300000000     0.972550000000     0          
O        O      0.676200000000     0.446050000000     0.788600000000     0          
O        O      0.741366666667     0.416350000000     0.811275000000     0          
O        O      0.707533333333     0.410500000000     0.977525000000     0          
O        O      0.775533333333     0.433300000000     0.891250000000     0          
O        O      0.702366666667     0.415600000000     0.886825000000     0          
O        O      0.795233333333     0.482800000000     0.845850000000     0          
O        O      0.840700000000     0.462450000000     0.915200000000     0          
O        O      0.978033333333     0.434550000000     0.935575000000     0          
O        O      0.982500000000     0.255050000000     0.943050000000     0          
O        O      0.689233333333     0.219350000000     0.888975000000     0          
O        O      0.749833333333     0.218650000000     0.837050000000     0          
O        O      0.741666666667     0.962400000000     0.002425000000     0          
O        O      0.773433333333     0.987900000000     0.181250000000     0          
O        O      0.786300000000     0.510900000000     0.015350000000     0          
O        O      0.717433333333     0.516700000000     0.222550000000     0          
O        O      0.676200000000     0.803950000000     0.038600000000     0          
O        O      0.741366666667     0.833650000000     0.061275000000     0          
O        O      0.707533333333     0.839500000000     0.227525000000     0          
O        O      0.757833333333     0.875000000000     0.125775000000     0          
O        O      0.775533333333     0.816700000000     0.141250000000     0          
O        O      0.702366666667     0.834400000000     0.136825000000     0          
O        O      0.795233333333     0.767200000000     0.095850000000     0          
O        O      0.840700000000     0.787550000000     0.165200000000     0          
O        O      0.978033333333     0.815450000000     0.185575000000     0          
O        O      0.992833333333     0.875000000000     0.178200000000     0          
O        O      0.982500000000     0.994950000000     0.193050000000     0          
O        O      0.689233333333     0.530650000000     0.138975000000     0          
O        O      0.749833333333     0.531350000000     0.087050000000     0          
O        O      0.925000000000     0.712400000000     0.247575000000     0          
O        O      0.893233333333     0.737900000000     0.068750000000     0          
O        O      0.880366666667     0.760900000000     0.234650000000     0          
O        O      0.949233333333     0.766700000000     0.027450000000     0          
O        O      0.990466666667     0.553950000000     0.211400000000     0          
O        O      0.925300000000     0.583650000000     0.188725000000     0          
O        O      0.959133333333     0.589500000000     0.022475000000     0          
O        O      0.908833333333     0.625000000000     0.124225000000     0          
O        O      0.891133333333     0.566700000000     0.108750000000     0          
O        O      0.964300000000     0.584400000000     0.113175000000     0          
O        O      0.871433333333     0.517200000000     0.154150000000     0          
O        O      0.825966666667     0.537550000000     0.084800000000     0          
O        O      0.688633333333     0.565450000000     0.064425000000     0          
O        O      0.673833333333     0.625000000000     0.071800000000     0          
O        O      0.684166666667     0.744950000000     0.056950000000     0          
O        O      0.977433333333     0.780650000000     0.111025000000     0          
O        O      0.916833333333     0.781350000000     0.162950000000     0          
O        O      0.925000000000     0.537600000000     0.247575000000     0          
O        O      0.893233333333     0.512100000000     0.068750000000     0          
O        O      0.880366666667     0.989100000000     0.234650000000     0          
O        O      0.949233333333     0.983300000000     0.027450000000     0          
O        O      0.990466666667     0.696050000000     0.211400000000     0          
O        O      0.925300000000     0.666350000000     0.188725000000     0          
O        O      0.959133333333     0.660500000000     0.022475000000     0          
O        O      0.891133333333     0.683300000000     0.108750000000     0          
O        O      0.964300000000     0.665600000000     0.113175000000     0          
O        O      0.871433333333     0.732800000000     0.154150000000     0          
O        O      0.825966666667     0.712450000000     0.084800000000     0          
O        O      0.688633333333     0.684550000000     0.064425000000     0          
O        O      0.684166666667     0.505050000000     0.056950000000     0          
O        O      0.977433333333     0.969350000000     0.111025000000     0          
O        O      0.916833333333     0.968650000000     0.162950000000     0          
O        O      0.741666666667     0.787600000000     0.002425000000     0          
O        O      0.773433333333     0.762100000000     0.181250000000     0          
O        O      0.786300000000     0.739100000000     0.015350000000     0          
O        O      0.717433333333     0.733300000000     0.222550000000     0          
O        O      0.676200000000     0.946050000000     0.038600000000     0          
O        O      0.741366666667     0.916350000000     0.061275000000     0          
O        O      0.707533333333     0.910500000000     0.227525000000     0          
O        O      0.775533333333     0.933300000000     0.141250000000     0          
O        O      0.702366666667     0.915600000000     0.136825000000     0          
O        O      0.795233333333     0.982800000000     0.095850000000     0          
O        O      0.840700000000     0.962450000000     0.165200000000     0          
O        O      0.978033333333     0.934550000000     0.185575000000     0          
O        O      0.982500000000     0.755050000000     0.193050000000     0          
O        O      0.689233333333     0.719350000000     0.138975000000     0          
O        O      0.749833333333     0.718650000000     0.087050000000     0          
O        O      0.741666666667     0.962400000000     0.252425000000     0          
O        O      0.773433333333     0.987900000000     0.431250000000     0          
O        O      0.786300000000     0.510900000000     0.265350000000     0          
O        O      0.717433333333     0.516700000000     0.472550000000     0          
O        O      0.676200000000     0.803950000000     0.288600000000     0          
O        O      0.741366666667     0.833650000000     0.311275000000     0          
O        O      0.707533333333     0.839500000000     0.477525000000     0          
O        O      0.757833333333     0.875000000000     0.375775000000     0          
O        O      0.775533333333     0.816700000000     0.391250000000     0          
O        O      0.702366666667     0.834400000000     0.386825000000     0          
O        O      0.795233333333     0.767200000000     0.345850000000     0          
O        O      0.840700000000     0.787550000000     0.415200000000     0          
O        O      0.978033333333     0.815450000000     0.435575000000     0          
O        O      0.992833333333     0.875000000000     0.428200000000     0          
O        O      0.982500000000     0.994950000000     0.443050000000     0          
O        O      0.689233333333     0.530650000000     0.388975000000     0          
O        O      0.749833333333     0.531350000000     0.337050000000     0          
O        O      0.925000000000     0.712400000000     0.497575000000     0          
O        O      0.893233333333     0.737900000000     0.318750000000     0          
O        O      0.880366666667     0.760900000000     0.484650000000     0          
O        O      0.949233333333     0.766700000000     0.277450000000     0          
O        O      0.990466666667     0.553950000000     0.461400000000     0          
O        O      0.925300000000     0.583650000000     0.438725000000     0          
O        O      0.959133333333     0.589500000000     0.272475000000     0          
O        O      0.908833333333     0.625000000000     0.374225000000     0          
O        O      0.891133333333     0.566700000000     0.358750000000     0          
O        O      0.964300000000     0.584400000000     0.363175000000     0          
O        O      0.871433333333     0.517200000000     0.404150000000     0          
O        O      0.825966666667     0.537550000000     0.334800000000     0          
O        O      0.688633333333     0.565450000000     0.314425000000     0          
O        O      0.673833333333     0.625000000000     0.321800000000     0          
O        O      0.684166666667     0.744950000000     0.306950000000     0          
O        O      0.977433333333     0.780650000000     0.361025000000     0          
O        O      0.916833333333     0.781350000000     0.412950000000     0          
O        O      0.925000000000     0.537600000000     0.497575000000     0          
O        O      0.893233333333     0.512100000000     0.318750000000     0          
O        O      0.880366666667     0.989100000000     0.484650000000     0          
O        O      0.949233333333     0.983300000000     0.277450000000     0          
O        O      0.990466666667     0.696050000000     0.461400000000     0          
O        O      0.925300000000     0.666350000000     0.438725000000     0          
O        O      0.959133333333     0.660500000000     0.272475000000     0          
O        O      0.891133333333     0.683300000000     0.358750000000     0          
O        O      0.964300000000     0.665600000000     0.363175000000     0          
O        O      0.871433333333     0.732800000000     0.404150000000     0          
O        O      0.825966666667     0.712450000000     0.334800000000     0          
O        O      0.688633333333     0.684550000000     0.314425000000     0          
O        O      0.684166666667     0.505050000000     0.306950000000     0          
O        O      0.977433333333     0.969350000000     0.361025000000     0          
O        O      0.916833333333     0.968650000000     0.412950000000     0          
O        O      0.741666666667     0.787600000000     0.252425000000     0          
O        O      0.773433333333     0.762100000000     0.431250000000     0          
O        O      0.786300000000     0.739100000000     0.265350000000     0          
O        O      0.717433333333     0.733300000000     0.472550000000     0          
O        O      0.676200000000     0.946050000000     0.288600000000     0          
O        O      0.741366666667     0.916350000000     0.311275000000     0          
O        O      0.707533333333     0.910500000000     0.477525000000     0          
O        O      0.775533333333     0.933300000000     0.391250000000     0          
O        O      0.702366666667     0.915600000000     0.386825000000     0          
O        O      0.795233333333     0.982800000000     0.345850000000     0          
O        O      0.840700000000     0.962450000000     0.415200000000     0          
O        O      0.978033333333     0.934550000000     0.435575000000     0          
O        O      0.982500000000     0.755050000000     0.443050000000     0          
O        O      0.689233333333     0.719350000000     0.388975000000     0          
O        O      0.749833333333     0.718650000000     0.337050000000     0          
O        O      0.741666666667     0.962400000000     0.502425000000     0          
O        O      0.773433333333     0.987900000000     0.681250000000     0          
O        O      0.786300000000     0.510900000000     0.515350000000     0          
O        O      0.717433333333     0.516700000000     0.722550000000     0          
O        O      0.676200000000     0.803950000000     0.538600000000     0          
O        O      0.741366666667     0.833650000000     0.561275000000     0          
O        O      0.707533333333     0.839500000000     0.727525000000     0          
O        O      0.757833333333     0.875000000000     0.625775000000     0          
O        O      0.775533333333     0.816700000000     0.641250000000     0          
O        O      0.702366666667     0.834400000000     0.636825000000     0          
O        O      0.795233333333     0.767200000000     0.595850000000     0          
O        O      0.840700000000     0.787550000000     0.665200000000     0          
O        O      0.978033333333     0.815450000000     0.685575000000     0          
O        O      0.992833333333     0.875000000000     0.678200000000     0          
O        O      0.982500000000     0.994950000000     0.693050000000     0          
O        O      0.689233333333     0.530650000000     0.638975000000     0          
O        O      0.749833333333     0.531350000000     0.587050000000     0          
O        O      0.925000000000     0.712400000000     0.747575000000     0          
O        O      0.893233333333     0.737900000000     0.568750000000     0          
O        O      0.880366666667     0.760900000000     0.734650000000     0          
O        O      0.949233333333     0.766700000000     0.527450000000     0          
O        O      0.990466666667     0.553950000000     0.711400000000     0          
O        O      0.925300000000     0.583650000000     0.688725000000     0          
O        O      0.959133333333     0.589500000000     0.522475000000     0          
O        O      0.908833333333     0.625000000000     0.624225000000     0          
O        O      0.891133333333     0.566700000000     0.608750000000     0          
O        O      0.964300000000     0.584400000000     0.613175000000     0          
O        O      0.871433333333     0.517200000000     0.654150000000     0          
O        O      0.825966666667     0.537550000000     0.584800000000     0          
O        O      0.688633333333     0.565450000000     0.564425000000     0          
O        O      0.673833333333     0.625000000000     0.571800000000     0          
O        O      0.684166666667     0.744950000000     0.556950000000     0          
O        O      0.977433333333     0.780650000000     0.611025000000     0          
O        O      0.916833333333     0.781350000000     0.662950000000     0          
O        O      0.925000000000     0.537600000000     0.747575000000     0          
O        O      0.893233333333     0.512100000000     0.568750000000     0          
O        O      0.880366666667     0.989100000000     0.734650000000     0          
O        O      0.949233333333     0.983300000000     0.527450000000     0          
O        O      0.990466666667     0.696050000000     0.711400000000     0          
O        O      0.925300000000     0.666350000000     0.688725000000     0          
O        O      0.959133333333     0.660500000000     0.522475000000     0          
O        O      0.891133333333     0.683300000000     0.608750000000     0          
O        O      0.964300000000     0.665600000000     0.613175000000     0          
O        O      0.871433333333     0.732800000000     0.654150000000     0          
O        O      0.825966666667     0.712450000000     0.584800000000     0          
O        O      0.688633333333     0.684550000000     0.564425000000     0          
O        O      0.684166666667     0.505050000000     0.556950000000     0          
O        O      0.977433333333     0.969350000000     0.611025000000     0          
O        O      0.916833333333     0.968650000000     0.662950000000     0          
O        O      0.741666666667     0.787600000000     0.502425000000     0          
O        O      0.773433333333     0.762100000000     0.681250000000     0          
O        O      0.786300000000     0.739100000000     0.515350000000     0          
O        O      0.717433333333     0.733300000000     0.722550000000     0          
O        O      0.676200000000     0.946050000000     0.538600000000     0          
O        O      0.741366666667     0.916350000000     0.561275000000     0          
O        O      0.707533333333     0.910500000000     0.727525000000     0          
O        O      0.775533333333     0.933300000000     0.641250000000     0          
O        O      0.702366666667     0.915600000000     0.636825000000     0          
O        O      0.795233333333     0.982800000000     0.595850000000     0          
O        O      0.840700000000     0.962450000000     0.665200000000     0          
O        O      0.978033333333     0.934550000000     0.685575000000     0          
O        O      0.982500000000     0.755050000000     0.693050000000     0          
O        O      0.689233333333     0.719350000000     0.638975000000     0          
O        O      0.749833333333     0.718650000000     0.587050000000     0          
O        O      0.741666666667     0.962400000000     0.752425000000     0          
O        O      0.773433333333     0.987900000000     0.931250000000     0          
O        O      0.786300000000     0.510900000000     0.765350000000     0          
O        O      0.717433333333     0.516700000000     0.972550000000     0          
O        O      0.676200000000     0.803950000000     0.788600000000     0          
O        O      0.741366666667     0.833650000000     0.811275000000     0          
O        O      0.707533333333     0.839500000000     0.977525000000     0          
O        O      0.757833333333     0.875000000000     0.875775000000     0          
O        O      0.775533333333     0.816700000000     0.891250000000     0          
O        O      0.702366666667     0.834400000000     0.886825000000     0          
O        O      0.795233333333     0.767200000000     0.845850000000     0          
O        O      0.840700000000     0.787550000000     0.915200000000     0          
O        O      0.978033333333     0.815450000000     0.935575000000     0          
O        O      0.992833333333     0.875000000000     0.928200000000     0          
O        O      0.982500000000     0.994950000000     0.943050000000     0          
O        O      0.689233333333     0.530650000000     0.888975000000     0          
O        O      0.749833333333     0.531350000000     0.837050000000     0          
O        O      0.925000000000     0.712400000000     0.997575000000     0          
O        O      0.893233333333     0.737900000000     0.818750000000     0          
O        O      0.880366666667     0.760900000000     0.984650000000     0          
O        O      0.949233333333     0.766700000000     0.777450000000     0          
O        O      0.990466666667     0.553950000000     0.961400000000     0          
O        O      0.925300000000     0.583650000000     0.938725000000     0          
O        O      0.959133333333     0.589500000000     0.772475000000     0          
O        O      0.908833333333     0.625000000000     0.874225000000     0          
O        O      0.891133333333     0.566700000000     0.858750000000     0          
O        O      0.964300000000     0.584400000000     0.863175000000     0          
O        O      0.871433333333     0.517200000000     0.904150000000     0          
O        O      0.825966666667     0.537550000000     0.834800000000     0          
O        O      0.688633333333     0.565450000000     0.814425000000     0          
O        O      0.673833333333     0.625000000000     0.821800000000     0          
O        O      0.684166666667     0.744950000000     0.806950000000     0          
O        O      0.977433333333     0.780650000000     0.861025000000     0          
O        O      0.916833333333     0.781350000000     0.912950000000     0          
O        O      0.925000000000     0.537600000000     0.997575000000     0          
O        O      0.893233333333     0.512100000000     0.818750000000     0          
O        O      0.880366666667     0.989100000000     0.984650000000     0          
O        O      0.949233333333     0.983300000000     0.777450000000     0          
O        O      0.990466666667     0.696050000000     0.961400000000     0          
O        O      0.925300000000     0.666350000000     0.938725000000     0          
O        O      0.959133333333     0.660500000000     0.772475000000     0          
O        O      0.891133333333     0.683300000000     0.858750000000     0          
O        O      0.964300000000     0.665600000000     0.863175000000     0          
O        O      0.871433333333     0.732800000000     0.904150000000     0          
O        O      0.825966666667     0.712450000000     0.834800000000     0          
O        O      0.688633333333     0.684550000000     0.814425000000     0          
O        O      0.684166666667     0.505050000000     0.806950000000     0          
O        O      0.977433333333     0.969350000000     0.861025000000     0          
O        O      0.916833333333     0.968650000000     0.912950000000     0          
O        O      0.741666666667     0.787600000000     0.752425000000     0          
O        O      0.773433333333     0.762100000000     0.931250000000     0          
O        O      0.786300000000     0.739100000000     0.765350000000     0          
O        O      0.717433333333     0.733300000000     0.972550000000     0          
O        O      0.676200000000     0.946050000000     0.788600000000     0          
O        O      0.741366666667     0.916350000000     0.811275000000     0          
O        O      0.707533333333     0.910500000000     0.977525000000     0          
O        O      0.775533333333     0.933300000000     0.891250000000     0          
O        O      0.702366666667     0.915600000000     0.886825000000     0          
O        O      0.795233333333     0.982800000000     0.845850000000     0          
O        O      0.840700000000     0.962450000000     0.915200000000     0          
O        O      0.978033333333     0.934550000000     0.935575000000     0          
O        O      0.982500000000     0.755050000000     0.943050000000     0          
O        O      0.689233333333     0.719350000000     0.888975000000     0          
O        O      0.749833333333     0.718650000000     0.837050000000     0          


