data_zeolite

_audit_creation_method RASPA-1.0
_audit_creation_date 2021-6-8
_audit_author_name ''

_cell_length_a    38.2233
_cell_length_b    38.0967
_cell_length_c    41.9982
_cell_angle_alpha 90
_cell_angle_beta  96.29
_cell_angle_gamma 90
_cell_volume      60788.8

_symmetry_cell_setting          monoclinic
_symmetry_space_group_name_Hall 'P 1'
_symmetry_space_group_name_H-M  'P 1'
_symmetry_Int_Tables_number     1

_symmetry_equiv_pos_as_xyz 'x,y,z'

loop_
_atom_site_label
_atom_site_type_symbol
_atom_site_fract_x
_atom_site_fract_y
_atom_site_fract_z
_atom_site_charge
T        Si     0.215566666667     0.040233333333     0.118550000000     0          
T        Si     0.265166666667     0.040233333333     0.182550000000     0          
T        Si     0.328866666667     0.040400000000     0.145150000000     0          
T        Si     0.279566666667     0.040366666667     0.081150000000     0          
T        Si     0.039433333333     0.126266666667     0.031050000000     0          
T        Si     0.089900000000     0.126300000000     0.093600000000     0          
T        Si     0.048633333333     0.101966666667     0.148800000000     0          
T        Si     0.095533333333     0.126700000000     0.208950000000     0          
T        Si     0.170600000000     0.126633333333     0.190600000000     0          
T        Si     0.244400000000     0.102633333333     0.221950000000     0          
T        Si     0.165100000000     0.102733333333     0.119900000000     0          
T        Si     0.298533333333     0.102366666667     0.039200000000     0          
T        Si     0.263333333333     0.166666666667     0.182300000000     0          
T        Si     0.330466666667     0.166666666667     0.142450000000     0          
T        Si     0.282466666667     0.166666666667     0.081000000000     0          
T        Si     0.215300000000     0.166666666667     0.120800000000     0          
O        O      0.007300000000     0.106666666667     0.045400000000     0          
O        O      0.029166666667     0.166666666667     0.023650000000     0          
O        O      0.074166666667     0.124600000000     0.056450000000     0          
O        O      0.093366666667     0.166666666667     0.104850000000     0          
O        O      0.128033333333     0.107900000000     0.098200000000     0          
O        O      0.063700000000     0.105833333333     0.114650000000     0          
O        O      0.030533333333     0.064033333333     0.151250000000     0          
O        O      0.019933333333     0.132133333333     0.152550000000     0          
O        O      0.080433333333     0.105766666667     0.177050000000     0          
O        O      0.082466666667     0.107866666667     0.239850000000     0          
O        O      0.081766666667     0.166666666667     0.206850000000     0          
O        O      0.137900000000     0.126466666667     0.211750000000     0          
O        O      0.159533333333     0.106766666667     0.157200000000     0          
O        O      0.181400000000     0.166666666667     0.184100000000     0          
O        O      0.203066666667     0.106233333333     0.210050000000     0          
O        O      0.258100000000     0.064433333333     0.212650000000     0          
O        O      0.265700000000     0.132200000000     0.204600000000     0          
O        O      0.227033333333     0.166666666667     0.158850000000     0          
O        O      0.295766666667     0.166666666667     0.160950000000     0          
O        O      0.318800000000     0.166666666667     0.104450000000     0          
O        O      0.280066666667     0.132166666667     0.058800000000     0          
O        O      0.250033333333     0.166666666667     0.102350000000     0          
O        O      0.192400000000     0.132200000000     0.110650000000     0          
O        O      0.180966666667     0.064600000000     0.113300000000     0          
O        O      0.204833333333     0.000000000000     0.110850000000     0          
O        O      0.244033333333     0.052633333333     0.095250000000     0          
O        O      0.232300000000     0.043400000000     0.155300000000     0          
O        O      0.269733333333     0.000000000000     0.193950000000     0          
O        O      0.300466666667     0.053133333333     0.168350000000     0          
O        O      0.312433333333     0.044133333333     0.108400000000     0          
O        O      0.275733333333     0.000000000000     0.069950000000     0          
O        O      0.286700000000     0.064366666667     0.050950000000     0          
O        O      0.286100000000     0.106966666667     0.001550000000     0          
O        O      0.005600000000     0.000000000000     0.152750000000     0          
T        Si     0.117766666667     0.040233333333     0.381450000000     0          
T        Si     0.068166666667     0.040233333333     0.317450000000     0          
T        Si     0.004466666667     0.040400000000     0.354850000000     0          
T        Si     0.053766666667     0.040366666667     0.418850000000     0          
T        Si     0.293900000000     0.126266666667     0.468950000000     0          
T        Si     0.243433333333     0.126300000000     0.406400000000     0          
T        Si     0.284700000000     0.101966666667     0.351200000000     0          
T        Si     0.237800000000     0.126700000000     0.291050000000     0          
T        Si     0.162733333333     0.126633333333     0.309400000000     0          
T        Si     0.088933333333     0.102633333333     0.278050000000     0          
T        Si     0.168233333333     0.102733333333     0.380100000000     0          
T        Si     0.034800000000     0.102366666667     0.460800000000     0          
T        Si     0.070000000000     0.166666666667     0.317700000000     0          
T        Si     0.002866666667     0.166666666667     0.357550000000     0          
T        Si     0.050866666667     0.166666666667     0.419000000000     0          
T        Si     0.118033333333     0.166666666667     0.379200000000     0          
O        O      0.326033333333     0.106666666667     0.454600000000     0          
O        O      0.304166666667     0.166666666667     0.476350000000     0          
O        O      0.259166666667     0.124600000000     0.443550000000     0          
O        O      0.239966666667     0.166666666667     0.395150000000     0          
O        O      0.205300000000     0.107900000000     0.401800000000     0          
O        O      0.269633333333     0.105833333333     0.385350000000     0          
O        O      0.302800000000     0.064033333333     0.348750000000     0          
O        O      0.313400000000     0.132133333333     0.347450000000     0          
O        O      0.252900000000     0.105766666667     0.322950000000     0          
O        O      0.250866666667     0.107866666667     0.260150000000     0          
O        O      0.251566666667     0.166666666667     0.293150000000     0          
O        O      0.195433333333     0.126466666667     0.288250000000     0          
O        O      0.173800000000     0.106766666667     0.342800000000     0          
O        O      0.151933333333     0.166666666667     0.315900000000     0          
O        O      0.130266666667     0.106233333333     0.289950000000     0          
O        O      0.075233333333     0.064433333333     0.287350000000     0          
O        O      0.067633333333     0.132200000000     0.295400000000     0          
O        O      0.106300000000     0.166666666667     0.341150000000     0          
O        O      0.037566666667     0.166666666667     0.339050000000     0          
O        O      0.014533333333     0.166666666667     0.395550000000     0          
O        O      0.053266666667     0.132166666667     0.441200000000     0          
O        O      0.083300000000     0.166666666667     0.397650000000     0          
O        O      0.140933333333     0.132200000000     0.389350000000     0          
O        O      0.152366666667     0.064600000000     0.386700000000     0          
O        O      0.128500000000     0.000000000000     0.389150000000     0          
O        O      0.089300000000     0.052633333333     0.404750000000     0          
O        O      0.101033333333     0.043400000000     0.344700000000     0          
O        O      0.063600000000     0.000000000000     0.306050000000     0          
O        O      0.032866666667     0.053133333333     0.331650000000     0          
O        O      0.020900000000     0.044133333333     0.391600000000     0          
O        O      0.057600000000     0.000000000000     0.430050000000     0          
O        O      0.046633333333     0.064366666667     0.449050000000     0          
O        O      0.047233333333     0.106966666667     0.498450000000     0          
O        O      0.327733333333     0.000000000000     0.347250000000     0          
T        Si     0.117766666667     0.293100000000     0.381450000000     0          
T        Si     0.068166666667     0.293100000000     0.317450000000     0          
T        Si     0.004466666667     0.292933333333     0.354850000000     0          
T        Si     0.053766666667     0.292966666667     0.418850000000     0          
T        Si     0.293900000000     0.207066666667     0.468950000000     0          
T        Si     0.243433333333     0.207033333333     0.406400000000     0          
T        Si     0.284700000000     0.231366666667     0.351200000000     0          
T        Si     0.237800000000     0.206633333333     0.291050000000     0          
T        Si     0.162733333333     0.206700000000     0.309400000000     0          
T        Si     0.088933333333     0.230700000000     0.278050000000     0          
T        Si     0.168233333333     0.230600000000     0.380100000000     0          
T        Si     0.034800000000     0.230966666667     0.460800000000     0          
O        O      0.326033333333     0.226666666667     0.454600000000     0          
O        O      0.259166666667     0.208733333333     0.443550000000     0          
O        O      0.205300000000     0.225433333333     0.401800000000     0          
O        O      0.269633333333     0.227500000000     0.385350000000     0          
O        O      0.302800000000     0.269300000000     0.348750000000     0          
O        O      0.313400000000     0.201200000000     0.347450000000     0          
O        O      0.252900000000     0.227566666667     0.322950000000     0          
O        O      0.250866666667     0.225466666667     0.260150000000     0          
O        O      0.195433333333     0.206866666667     0.288250000000     0          
O        O      0.173800000000     0.226566666667     0.342800000000     0          
O        O      0.130266666667     0.227100000000     0.289950000000     0          
O        O      0.075233333333     0.268900000000     0.287350000000     0          
O        O      0.067633333333     0.201133333333     0.295400000000     0          
O        O      0.053266666667     0.201166666667     0.441200000000     0          
O        O      0.140933333333     0.201133333333     0.389350000000     0          
O        O      0.152366666667     0.268733333333     0.386700000000     0          
O        O      0.089300000000     0.280700000000     0.404750000000     0          
O        O      0.101033333333     0.289933333333     0.344700000000     0          
O        O      0.032866666667     0.280200000000     0.331650000000     0          
O        O      0.020900000000     0.289200000000     0.391600000000     0          
O        O      0.046633333333     0.268966666667     0.449050000000     0          
O        O      0.047233333333     0.226366666667     0.498450000000     0          
T        Si     0.215566666667     0.293100000000     0.118550000000     0          
T        Si     0.265166666667     0.293100000000     0.182550000000     0          
T        Si     0.328866666667     0.292933333333     0.145150000000     0          
T        Si     0.279566666667     0.292966666667     0.081150000000     0          
T        Si     0.039433333333     0.207066666667     0.031050000000     0          
T        Si     0.089900000000     0.207033333333     0.093600000000     0          
T        Si     0.048633333333     0.231366666667     0.148800000000     0          
T        Si     0.095533333333     0.206633333333     0.208950000000     0          
T        Si     0.170600000000     0.206700000000     0.190600000000     0          
T        Si     0.244400000000     0.230700000000     0.221950000000     0          
T        Si     0.165100000000     0.230600000000     0.119900000000     0          
T        Si     0.298533333333     0.230966666667     0.039200000000     0          
O        O      0.007300000000     0.226666666667     0.045400000000     0          
O        O      0.074166666667     0.208733333333     0.056450000000     0          
O        O      0.128033333333     0.225433333333     0.098200000000     0          
O        O      0.063700000000     0.227500000000     0.114650000000     0          
O        O      0.030533333333     0.269300000000     0.151250000000     0          
O        O      0.019933333333     0.201200000000     0.152550000000     0          
O        O      0.080433333333     0.227566666667     0.177050000000     0          
O        O      0.082466666667     0.225466666667     0.239850000000     0          
O        O      0.137900000000     0.206866666667     0.211750000000     0          
O        O      0.159533333333     0.226566666667     0.157200000000     0          
O        O      0.203066666667     0.227100000000     0.210050000000     0          
O        O      0.258100000000     0.268900000000     0.212650000000     0          
O        O      0.265700000000     0.201133333333     0.204600000000     0          
O        O      0.280066666667     0.201166666667     0.058800000000     0          
O        O      0.192400000000     0.201133333333     0.110650000000     0          
O        O      0.180966666667     0.268733333333     0.113300000000     0          
O        O      0.244033333333     0.280700000000     0.095250000000     0          
O        O      0.232300000000     0.289933333333     0.155300000000     0          
O        O      0.300466666667     0.280200000000     0.168350000000     0          
O        O      0.312433333333     0.289200000000     0.108400000000     0          
O        O      0.286700000000     0.268966666667     0.050950000000     0          
O        O      0.286100000000     0.226366666667     0.001550000000     0          
T        Si     0.215566666667     0.040233333333     0.618550000000     0          
T        Si     0.265166666667     0.040233333333     0.682550000000     0          
T        Si     0.328866666667     0.040400000000     0.645150000000     0          
T        Si     0.279566666667     0.040366666667     0.581150000000     0          
T        Si     0.039433333333     0.126266666667     0.531050000000     0          
T        Si     0.089900000000     0.126300000000     0.593600000000     0          
T        Si     0.048633333333     0.101966666667     0.648800000000     0          
T        Si     0.095533333333     0.126700000000     0.708950000000     0          
T        Si     0.170600000000     0.126633333333     0.690600000000     0          
T        Si     0.244400000000     0.102633333333     0.721950000000     0          
T        Si     0.165100000000     0.102733333333     0.619900000000     0          
T        Si     0.298533333333     0.102366666667     0.539200000000     0          
T        Si     0.263333333333     0.166666666667     0.682300000000     0          
T        Si     0.330466666667     0.166666666667     0.642450000000     0          
T        Si     0.282466666667     0.166666666667     0.581000000000     0          
T        Si     0.215300000000     0.166666666667     0.620800000000     0          
O        O      0.007300000000     0.106666666667     0.545400000000     0          
O        O      0.029166666667     0.166666666667     0.523650000000     0          
O        O      0.074166666667     0.124600000000     0.556450000000     0          
O        O      0.093366666667     0.166666666667     0.604850000000     0          
O        O      0.128033333333     0.107900000000     0.598200000000     0          
O        O      0.063700000000     0.105833333333     0.614650000000     0          
O        O      0.030533333333     0.064033333333     0.651250000000     0          
O        O      0.019933333333     0.132133333333     0.652550000000     0          
O        O      0.080433333333     0.105766666667     0.677050000000     0          
O        O      0.082466666667     0.107866666667     0.739850000000     0          
O        O      0.081766666667     0.166666666667     0.706850000000     0          
O        O      0.137900000000     0.126466666667     0.711750000000     0          
O        O      0.159533333333     0.106766666667     0.657200000000     0          
O        O      0.181400000000     0.166666666667     0.684100000000     0          
O        O      0.203066666667     0.106233333333     0.710050000000     0          
O        O      0.258100000000     0.064433333333     0.712650000000     0          
O        O      0.265700000000     0.132200000000     0.704600000000     0          
O        O      0.227033333333     0.166666666667     0.658850000000     0          
O        O      0.295766666667     0.166666666667     0.660950000000     0          
O        O      0.318800000000     0.166666666667     0.604450000000     0          
O        O      0.280066666667     0.132166666667     0.558800000000     0          
O        O      0.250033333333     0.166666666667     0.602350000000     0          
O        O      0.192400000000     0.132200000000     0.610650000000     0          
O        O      0.180966666667     0.064600000000     0.613300000000     0          
O        O      0.204833333333     0.000000000000     0.610850000000     0          
O        O      0.244033333333     0.052633333333     0.595250000000     0          
O        O      0.232300000000     0.043400000000     0.655300000000     0          
O        O      0.269733333333     0.000000000000     0.693950000000     0          
O        O      0.300466666667     0.053133333333     0.668350000000     0          
O        O      0.312433333333     0.044133333333     0.608400000000     0          
O        O      0.275733333333     0.000000000000     0.569950000000     0          
O        O      0.286700000000     0.064366666667     0.550950000000     0          
O        O      0.286100000000     0.106966666667     0.501550000000     0          
O        O      0.005600000000     0.000000000000     0.652750000000     0          
T        Si     0.117766666667     0.040233333333     0.881450000000     0          
T        Si     0.068166666667     0.040233333333     0.817450000000     0          
T        Si     0.004466666667     0.040400000000     0.854850000000     0          
T        Si     0.053766666667     0.040366666667     0.918850000000     0          
T        Si     0.293900000000     0.126266666667     0.968950000000     0          
T        Si     0.243433333333     0.126300000000     0.906400000000     0          
T        Si     0.284700000000     0.101966666667     0.851200000000     0          
T        Si     0.237800000000     0.126700000000     0.791050000000     0          
T        Si     0.162733333333     0.126633333333     0.809400000000     0          
T        Si     0.088933333333     0.102633333333     0.778050000000     0          
T        Si     0.168233333333     0.102733333333     0.880100000000     0          
T        Si     0.034800000000     0.102366666667     0.960800000000     0          
T        Si     0.070000000000     0.166666666667     0.817700000000     0          
T        Si     0.002866666667     0.166666666667     0.857550000000     0          
T        Si     0.050866666667     0.166666666667     0.919000000000     0          
T        Si     0.118033333333     0.166666666667     0.879200000000     0          
O        O      0.326033333333     0.106666666667     0.954600000000     0          
O        O      0.304166666667     0.166666666667     0.976350000000     0          
O        O      0.259166666667     0.124600000000     0.943550000000     0          
O        O      0.239966666667     0.166666666667     0.895150000000     0          
O        O      0.205300000000     0.107900000000     0.901800000000     0          
O        O      0.269633333333     0.105833333333     0.885350000000     0          
O        O      0.302800000000     0.064033333333     0.848750000000     0          
O        O      0.313400000000     0.132133333333     0.847450000000     0          
O        O      0.252900000000     0.105766666667     0.822950000000     0          
O        O      0.250866666667     0.107866666667     0.760150000000     0          
O        O      0.251566666667     0.166666666667     0.793150000000     0          
O        O      0.195433333333     0.126466666667     0.788250000000     0          
O        O      0.173800000000     0.106766666667     0.842800000000     0          
O        O      0.151933333333     0.166666666667     0.815900000000     0          
O        O      0.130266666667     0.106233333333     0.789950000000     0          
O        O      0.075233333333     0.064433333333     0.787350000000     0          
O        O      0.067633333333     0.132200000000     0.795400000000     0          
O        O      0.106300000000     0.166666666667     0.841150000000     0          
O        O      0.037566666667     0.166666666667     0.839050000000     0          
O        O      0.014533333333     0.166666666667     0.895550000000     0          
O        O      0.053266666667     0.132166666667     0.941200000000     0          
O        O      0.083300000000     0.166666666667     0.897650000000     0          
O        O      0.140933333333     0.132200000000     0.889350000000     0          
O        O      0.152366666667     0.064600000000     0.886700000000     0          
O        O      0.128500000000     0.000000000000     0.889150000000     0          
O        O      0.089300000000     0.052633333333     0.904750000000     0          
O        O      0.101033333333     0.043400000000     0.844700000000     0          
O        O      0.063600000000     0.000000000000     0.806050000000     0          
O        O      0.032866666667     0.053133333333     0.831650000000     0          
O        O      0.020900000000     0.044133333333     0.891600000000     0          
O        O      0.057600000000     0.000000000000     0.930050000000     0          
O        O      0.046633333333     0.064366666667     0.949050000000     0          
O        O      0.047233333333     0.106966666667     0.998450000000     0          
O        O      0.327733333333     0.000000000000     0.847250000000     0          
T        Si     0.117766666667     0.293100000000     0.881450000000     0          
T        Si     0.068166666667     0.293100000000     0.817450000000     0          
T        Si     0.004466666667     0.292933333333     0.854850000000     0          
T        Si     0.053766666667     0.292966666667     0.918850000000     0          
T        Si     0.293900000000     0.207066666667     0.968950000000     0          
T        Si     0.243433333333     0.207033333333     0.906400000000     0          
T        Si     0.284700000000     0.231366666667     0.851200000000     0          
T        Si     0.237800000000     0.206633333333     0.791050000000     0          
T        Si     0.162733333333     0.206700000000     0.809400000000     0          
T        Si     0.088933333333     0.230700000000     0.778050000000     0          
T        Si     0.168233333333     0.230600000000     0.880100000000     0          
T        Si     0.034800000000     0.230966666667     0.960800000000     0          
O        O      0.326033333333     0.226666666667     0.954600000000     0          
O        O      0.259166666667     0.208733333333     0.943550000000     0          
O        O      0.205300000000     0.225433333333     0.901800000000     0          
O        O      0.269633333333     0.227500000000     0.885350000000     0          
O        O      0.302800000000     0.269300000000     0.848750000000     0          
O        O      0.313400000000     0.201200000000     0.847450000000     0          
O        O      0.252900000000     0.227566666667     0.822950000000     0          
O        O      0.250866666667     0.225466666667     0.760150000000     0          
O        O      0.195433333333     0.206866666667     0.788250000000     0          
O        O      0.173800000000     0.226566666667     0.842800000000     0          
O        O      0.130266666667     0.227100000000     0.789950000000     0          
O        O      0.075233333333     0.268900000000     0.787350000000     0          
O        O      0.067633333333     0.201133333333     0.795400000000     0          
O        O      0.053266666667     0.201166666667     0.941200000000     0          
O        O      0.140933333333     0.201133333333     0.889350000000     0          
O        O      0.152366666667     0.268733333333     0.886700000000     0          
O        O      0.089300000000     0.280700000000     0.904750000000     0          
O        O      0.101033333333     0.289933333333     0.844700000000     0          
O        O      0.032866666667     0.280200000000     0.831650000000     0          
O        O      0.020900000000     0.289200000000     0.891600000000     0          
O        O      0.046633333333     0.268966666667     0.949050000000     0          
O        O      0.047233333333     0.226366666667     0.998450000000     0          
T        Si     0.215566666667     0.293100000000     0.618550000000     0          
T        Si     0.265166666667     0.293100000000     0.682550000000     0          
T        Si     0.328866666667     0.292933333333     0.645150000000     0          
T        Si     0.279566666667     0.292966666667     0.581150000000     0          
T        Si     0.039433333333     0.207066666667     0.531050000000     0          
T        Si     0.089900000000     0.207033333333     0.593600000000     0          
T        Si     0.048633333333     0.231366666667     0.648800000000     0          
T        Si     0.095533333333     0.206633333333     0.708950000000     0          
T        Si     0.170600000000     0.206700000000     0.690600000000     0          
T        Si     0.244400000000     0.230700000000     0.721950000000     0          
T        Si     0.165100000000     0.230600000000     0.619900000000     0          
T        Si     0.298533333333     0.230966666667     0.539200000000     0          
O        O      0.007300000000     0.226666666667     0.545400000000     0          
O        O      0.074166666667     0.208733333333     0.556450000000     0          
O        O      0.128033333333     0.225433333333     0.598200000000     0          
O        O      0.063700000000     0.227500000000     0.614650000000     0          
O        O      0.030533333333     0.269300000000     0.651250000000     0          
O        O      0.019933333333     0.201200000000     0.652550000000     0          
O        O      0.080433333333     0.227566666667     0.677050000000     0          
O        O      0.082466666667     0.225466666667     0.739850000000     0          
O        O      0.137900000000     0.206866666667     0.711750000000     0          
O        O      0.159533333333     0.226566666667     0.657200000000     0          
O        O      0.203066666667     0.227100000000     0.710050000000     0          
O        O      0.258100000000     0.268900000000     0.712650000000     0          
O        O      0.265700000000     0.201133333333     0.704600000000     0          
O        O      0.280066666667     0.201166666667     0.558800000000     0          
O        O      0.192400000000     0.201133333333     0.610650000000     0          
O        O      0.180966666667     0.268733333333     0.613300000000     0          
O        O      0.244033333333     0.280700000000     0.595250000000     0          
O        O      0.232300000000     0.289933333333     0.655300000000     0          
O        O      0.300466666667     0.280200000000     0.668350000000     0          
O        O      0.312433333333     0.289200000000     0.608400000000     0          
O        O      0.286700000000     0.268966666667     0.550950000000     0          
O        O      0.286100000000     0.226366666667     0.501550000000     0          
T        Si     0.215566666667     0.373566666667     0.118550000000     0          
T        Si     0.265166666667     0.373566666667     0.182550000000     0          
T        Si     0.328866666667     0.373733333333     0.145150000000     0          
T        Si     0.279566666667     0.373700000000     0.081150000000     0          
T        Si     0.039433333333     0.459600000000     0.031050000000     0          
T        Si     0.089900000000     0.459633333333     0.093600000000     0          
T        Si     0.048633333333     0.435300000000     0.148800000000     0          
T        Si     0.095533333333     0.460033333333     0.208950000000     0          
T        Si     0.170600000000     0.459966666667     0.190600000000     0          
T        Si     0.244400000000     0.435966666667     0.221950000000     0          
T        Si     0.165100000000     0.436066666667     0.119900000000     0          
T        Si     0.298533333333     0.435700000000     0.039200000000     0          
T        Si     0.263333333333     0.500000000000     0.182300000000     0          
T        Si     0.330466666667     0.500000000000     0.142450000000     0          
T        Si     0.282466666667     0.500000000000     0.081000000000     0          
T        Si     0.215300000000     0.500000000000     0.120800000000     0          
O        O      0.007300000000     0.440000000000     0.045400000000     0          
O        O      0.029166666667     0.500000000000     0.023650000000     0          
O        O      0.074166666667     0.457933333333     0.056450000000     0          
O        O      0.093366666667     0.500000000000     0.104850000000     0          
O        O      0.128033333333     0.441233333333     0.098200000000     0          
O        O      0.063700000000     0.439166666667     0.114650000000     0          
O        O      0.030533333333     0.397366666667     0.151250000000     0          
O        O      0.019933333333     0.465466666667     0.152550000000     0          
O        O      0.080433333333     0.439100000000     0.177050000000     0          
O        O      0.082466666667     0.441200000000     0.239850000000     0          
O        O      0.081766666667     0.500000000000     0.206850000000     0          
O        O      0.137900000000     0.459800000000     0.211750000000     0          
O        O      0.159533333333     0.440100000000     0.157200000000     0          
O        O      0.181400000000     0.500000000000     0.184100000000     0          
O        O      0.203066666667     0.439566666667     0.210050000000     0          
O        O      0.258100000000     0.397766666667     0.212650000000     0          
O        O      0.265700000000     0.465533333333     0.204600000000     0          
O        O      0.227033333333     0.500000000000     0.158850000000     0          
O        O      0.295766666667     0.500000000000     0.160950000000     0          
O        O      0.318800000000     0.500000000000     0.104450000000     0          
O        O      0.280066666667     0.465500000000     0.058800000000     0          
O        O      0.250033333333     0.500000000000     0.102350000000     0          
O        O      0.192400000000     0.465533333333     0.110650000000     0          
O        O      0.180966666667     0.397933333333     0.113300000000     0          
O        O      0.204833333333     0.333333333333     0.110850000000     0          
O        O      0.244033333333     0.385966666667     0.095250000000     0          
O        O      0.232300000000     0.376733333333     0.155300000000     0          
O        O      0.269733333333     0.333333333333     0.193950000000     0          
O        O      0.300466666667     0.386466666667     0.168350000000     0          
O        O      0.312433333333     0.377466666667     0.108400000000     0          
O        O      0.275733333333     0.333333333333     0.069950000000     0          
O        O      0.286700000000     0.397700000000     0.050950000000     0          
O        O      0.286100000000     0.440300000000     0.001550000000     0          
O        O      0.005600000000     0.333333333333     0.152750000000     0          
T        Si     0.117766666667     0.373566666667     0.381450000000     0          
T        Si     0.068166666667     0.373566666667     0.317450000000     0          
T        Si     0.004466666667     0.373733333333     0.354850000000     0          
T        Si     0.053766666667     0.373700000000     0.418850000000     0          
T        Si     0.293900000000     0.459600000000     0.468950000000     0          
T        Si     0.243433333333     0.459633333333     0.406400000000     0          
T        Si     0.284700000000     0.435300000000     0.351200000000     0          
T        Si     0.237800000000     0.460033333333     0.291050000000     0          
T        Si     0.162733333333     0.459966666667     0.309400000000     0          
T        Si     0.088933333333     0.435966666667     0.278050000000     0          
T        Si     0.168233333333     0.436066666667     0.380100000000     0          
T        Si     0.034800000000     0.435700000000     0.460800000000     0          
T        Si     0.070000000000     0.500000000000     0.317700000000     0          
T        Si     0.002866666667     0.500000000000     0.357550000000     0          
T        Si     0.050866666667     0.500000000000     0.419000000000     0          
T        Si     0.118033333333     0.500000000000     0.379200000000     0          
O        O      0.326033333333     0.440000000000     0.454600000000     0          
O        O      0.304166666667     0.500000000000     0.476350000000     0          
O        O      0.259166666667     0.457933333333     0.443550000000     0          
O        O      0.239966666667     0.500000000000     0.395150000000     0          
O        O      0.205300000000     0.441233333333     0.401800000000     0          
O        O      0.269633333333     0.439166666667     0.385350000000     0          
O        O      0.302800000000     0.397366666667     0.348750000000     0          
O        O      0.313400000000     0.465466666667     0.347450000000     0          
O        O      0.252900000000     0.439100000000     0.322950000000     0          
O        O      0.250866666667     0.441200000000     0.260150000000     0          
O        O      0.251566666667     0.500000000000     0.293150000000     0          
O        O      0.195433333333     0.459800000000     0.288250000000     0          
O        O      0.173800000000     0.440100000000     0.342800000000     0          
O        O      0.151933333333     0.500000000000     0.315900000000     0          
O        O      0.130266666667     0.439566666667     0.289950000000     0          
O        O      0.075233333333     0.397766666667     0.287350000000     0          
O        O      0.067633333333     0.465533333333     0.295400000000     0          
O        O      0.106300000000     0.500000000000     0.341150000000     0          
O        O      0.037566666667     0.500000000000     0.339050000000     0          
O        O      0.014533333333     0.500000000000     0.395550000000     0          
O        O      0.053266666667     0.465500000000     0.441200000000     0          
O        O      0.083300000000     0.500000000000     0.397650000000     0          
O        O      0.140933333333     0.465533333333     0.389350000000     0          
O        O      0.152366666667     0.397933333333     0.386700000000     0          
O        O      0.128500000000     0.333333333333     0.389150000000     0          
O        O      0.089300000000     0.385966666667     0.404750000000     0          
O        O      0.101033333333     0.376733333333     0.344700000000     0          
O        O      0.063600000000     0.333333333333     0.306050000000     0          
O        O      0.032866666667     0.386466666667     0.331650000000     0          
O        O      0.020900000000     0.377466666667     0.391600000000     0          
O        O      0.057600000000     0.333333333333     0.430050000000     0          
O        O      0.046633333333     0.397700000000     0.449050000000     0          
O        O      0.047233333333     0.440300000000     0.498450000000     0          
O        O      0.327733333333     0.333333333333     0.347250000000     0          
T        Si     0.117766666667     0.626433333333     0.381450000000     0          
T        Si     0.068166666667     0.626433333333     0.317450000000     0          
T        Si     0.004466666667     0.626266666667     0.354850000000     0          
T        Si     0.053766666667     0.626300000000     0.418850000000     0          
T        Si     0.293900000000     0.540400000000     0.468950000000     0          
T        Si     0.243433333333     0.540366666667     0.406400000000     0          
T        Si     0.284700000000     0.564700000000     0.351200000000     0          
T        Si     0.237800000000     0.539966666667     0.291050000000     0          
T        Si     0.162733333333     0.540033333333     0.309400000000     0          
T        Si     0.088933333333     0.564033333333     0.278050000000     0          
T        Si     0.168233333333     0.563933333333     0.380100000000     0          
T        Si     0.034800000000     0.564300000000     0.460800000000     0          
O        O      0.326033333333     0.560000000000     0.454600000000     0          
O        O      0.259166666667     0.542066666667     0.443550000000     0          
O        O      0.205300000000     0.558766666667     0.401800000000     0          
O        O      0.269633333333     0.560833333333     0.385350000000     0          
O        O      0.302800000000     0.602633333333     0.348750000000     0          
O        O      0.313400000000     0.534533333333     0.347450000000     0          
O        O      0.252900000000     0.560900000000     0.322950000000     0          
O        O      0.250866666667     0.558800000000     0.260150000000     0          
O        O      0.195433333333     0.540200000000     0.288250000000     0          
O        O      0.173800000000     0.559900000000     0.342800000000     0          
O        O      0.130266666667     0.560433333333     0.289950000000     0          
O        O      0.075233333333     0.602233333333     0.287350000000     0          
O        O      0.067633333333     0.534466666667     0.295400000000     0          
O        O      0.053266666667     0.534500000000     0.441200000000     0          
O        O      0.140933333333     0.534466666667     0.389350000000     0          
O        O      0.152366666667     0.602066666667     0.386700000000     0          
O        O      0.089300000000     0.614033333333     0.404750000000     0          
O        O      0.101033333333     0.623266666667     0.344700000000     0          
O        O      0.032866666667     0.613533333333     0.331650000000     0          
O        O      0.020900000000     0.622533333333     0.391600000000     0          
O        O      0.046633333333     0.602300000000     0.449050000000     0          
O        O      0.047233333333     0.559700000000     0.498450000000     0          
T        Si     0.215566666667     0.626433333333     0.118550000000     0          
T        Si     0.265166666667     0.626433333333     0.182550000000     0          
T        Si     0.328866666667     0.626266666667     0.145150000000     0          
T        Si     0.279566666667     0.626300000000     0.081150000000     0          
T        Si     0.039433333333     0.540400000000     0.031050000000     0          
T        Si     0.089900000000     0.540366666667     0.093600000000     0          
T        Si     0.048633333333     0.564700000000     0.148800000000     0          
T        Si     0.095533333333     0.539966666667     0.208950000000     0          
T        Si     0.170600000000     0.540033333333     0.190600000000     0          
T        Si     0.244400000000     0.564033333333     0.221950000000     0          
T        Si     0.165100000000     0.563933333333     0.119900000000     0          
T        Si     0.298533333333     0.564300000000     0.039200000000     0          
O        O      0.007300000000     0.560000000000     0.045400000000     0          
O        O      0.074166666667     0.542066666667     0.056450000000     0          
O        O      0.128033333333     0.558766666667     0.098200000000     0          
O        O      0.063700000000     0.560833333333     0.114650000000     0          
O        O      0.030533333333     0.602633333333     0.151250000000     0          
O        O      0.019933333333     0.534533333333     0.152550000000     0          
O        O      0.080433333333     0.560900000000     0.177050000000     0          
O        O      0.082466666667     0.558800000000     0.239850000000     0          
O        O      0.137900000000     0.540200000000     0.211750000000     0          
O        O      0.159533333333     0.559900000000     0.157200000000     0          
O        O      0.203066666667     0.560433333333     0.210050000000     0          
O        O      0.258100000000     0.602233333333     0.212650000000     0          
O        O      0.265700000000     0.534466666667     0.204600000000     0          
O        O      0.280066666667     0.534500000000     0.058800000000     0          
O        O      0.192400000000     0.534466666667     0.110650000000     0          
O        O      0.180966666667     0.602066666667     0.113300000000     0          
O        O      0.244033333333     0.614033333333     0.095250000000     0          
O        O      0.232300000000     0.623266666667     0.155300000000     0          
O        O      0.300466666667     0.613533333333     0.168350000000     0          
O        O      0.312433333333     0.622533333333     0.108400000000     0          
O        O      0.286700000000     0.602300000000     0.050950000000     0          
O        O      0.286100000000     0.559700000000     0.001550000000     0          
T        Si     0.215566666667     0.373566666667     0.618550000000     0          
T        Si     0.265166666667     0.373566666667     0.682550000000     0          
T        Si     0.328866666667     0.373733333333     0.645150000000     0          
T        Si     0.279566666667     0.373700000000     0.581150000000     0          
T        Si     0.039433333333     0.459600000000     0.531050000000     0          
T        Si     0.089900000000     0.459633333333     0.593600000000     0          
T        Si     0.048633333333     0.435300000000     0.648800000000     0          
T        Si     0.095533333333     0.460033333333     0.708950000000     0          
T        Si     0.170600000000     0.459966666667     0.690600000000     0          
T        Si     0.244400000000     0.435966666667     0.721950000000     0          
T        Si     0.165100000000     0.436066666667     0.619900000000     0          
T        Si     0.298533333333     0.435700000000     0.539200000000     0          
T        Si     0.263333333333     0.500000000000     0.682300000000     0          
T        Si     0.330466666667     0.500000000000     0.642450000000     0          
T        Si     0.282466666667     0.500000000000     0.581000000000     0          
T        Si     0.215300000000     0.500000000000     0.620800000000     0          
O        O      0.007300000000     0.440000000000     0.545400000000     0          
O        O      0.029166666667     0.500000000000     0.523650000000     0          
O        O      0.074166666667     0.457933333333     0.556450000000     0          
O        O      0.093366666667     0.500000000000     0.604850000000     0          
O        O      0.128033333333     0.441233333333     0.598200000000     0          
O        O      0.063700000000     0.439166666667     0.614650000000     0          
O        O      0.030533333333     0.397366666667     0.651250000000     0          
O        O      0.019933333333     0.465466666667     0.652550000000     0          
O        O      0.080433333333     0.439100000000     0.677050000000     0          
O        O      0.082466666667     0.441200000000     0.739850000000     0          
O        O      0.081766666667     0.500000000000     0.706850000000     0          
O        O      0.137900000000     0.459800000000     0.711750000000     0          
O        O      0.159533333333     0.440100000000     0.657200000000     0          
O        O      0.181400000000     0.500000000000     0.684100000000     0          
O        O      0.203066666667     0.439566666667     0.710050000000     0          
O        O      0.258100000000     0.397766666667     0.712650000000     0          
O        O      0.265700000000     0.465533333333     0.704600000000     0          
O        O      0.227033333333     0.500000000000     0.658850000000     0          
O        O      0.295766666667     0.500000000000     0.660950000000     0          
O        O      0.318800000000     0.500000000000     0.604450000000     0          
O        O      0.280066666667     0.465500000000     0.558800000000     0          
O        O      0.250033333333     0.500000000000     0.602350000000     0          
O        O      0.192400000000     0.465533333333     0.610650000000     0          
O        O      0.180966666667     0.397933333333     0.613300000000     0          
O        O      0.204833333333     0.333333333333     0.610850000000     0          
O        O      0.244033333333     0.385966666667     0.595250000000     0          
O        O      0.232300000000     0.376733333333     0.655300000000     0          
O        O      0.269733333333     0.333333333333     0.693950000000     0          
O        O      0.300466666667     0.386466666667     0.668350000000     0          
O        O      0.312433333333     0.377466666667     0.608400000000     0          
O        O      0.275733333333     0.333333333333     0.569950000000     0          
O        O      0.286700000000     0.397700000000     0.550950000000     0          
O        O      0.286100000000     0.440300000000     0.501550000000     0          
O        O      0.005600000000     0.333333333333     0.652750000000     0          
T        Si     0.117766666667     0.373566666667     0.881450000000     0          
T        Si     0.068166666667     0.373566666667     0.817450000000     0          
T        Si     0.004466666667     0.373733333333     0.854850000000     0          
T        Si     0.053766666667     0.373700000000     0.918850000000     0          
T        Si     0.293900000000     0.459600000000     0.968950000000     0          
T        Si     0.243433333333     0.459633333333     0.906400000000     0          
T        Si     0.284700000000     0.435300000000     0.851200000000     0          
T        Si     0.237800000000     0.460033333333     0.791050000000     0          
T        Si     0.162733333333     0.459966666667     0.809400000000     0          
T        Si     0.088933333333     0.435966666667     0.778050000000     0          
T        Si     0.168233333333     0.436066666667     0.880100000000     0          
T        Si     0.034800000000     0.435700000000     0.960800000000     0          
T        Si     0.070000000000     0.500000000000     0.817700000000     0          
T        Si     0.002866666667     0.500000000000     0.857550000000     0          
T        Si     0.050866666667     0.500000000000     0.919000000000     0          
T        Si     0.118033333333     0.500000000000     0.879200000000     0          
O        O      0.326033333333     0.440000000000     0.954600000000     0          
O        O      0.304166666667     0.500000000000     0.976350000000     0          
O        O      0.259166666667     0.457933333333     0.943550000000     0          
O        O      0.239966666667     0.500000000000     0.895150000000     0          
O        O      0.205300000000     0.441233333333     0.901800000000     0          
O        O      0.269633333333     0.439166666667     0.885350000000     0          
O        O      0.302800000000     0.397366666667     0.848750000000     0          
O        O      0.313400000000     0.465466666667     0.847450000000     0          
O        O      0.252900000000     0.439100000000     0.822950000000     0          
O        O      0.250866666667     0.441200000000     0.760150000000     0          
O        O      0.251566666667     0.500000000000     0.793150000000     0          
O        O      0.195433333333     0.459800000000     0.788250000000     0          
O        O      0.173800000000     0.440100000000     0.842800000000     0          
O        O      0.151933333333     0.500000000000     0.815900000000     0          
O        O      0.130266666667     0.439566666667     0.789950000000     0          
O        O      0.075233333333     0.397766666667     0.787350000000     0          
O        O      0.067633333333     0.465533333333     0.795400000000     0          
O        O      0.106300000000     0.500000000000     0.841150000000     0          
O        O      0.037566666667     0.500000000000     0.839050000000     0          
O        O      0.014533333333     0.500000000000     0.895550000000     0          
O        O      0.053266666667     0.465500000000     0.941200000000     0          
O        O      0.083300000000     0.500000000000     0.897650000000     0          
O        O      0.140933333333     0.465533333333     0.889350000000     0          
O        O      0.152366666667     0.397933333333     0.886700000000     0          
O        O      0.128500000000     0.333333333333     0.889150000000     0          
O        O      0.089300000000     0.385966666667     0.904750000000     0          
O        O      0.101033333333     0.376733333333     0.844700000000     0          
O        O      0.063600000000     0.333333333333     0.806050000000     0          
O        O      0.032866666667     0.386466666667     0.831650000000     0          
O        O      0.020900000000     0.377466666667     0.891600000000     0          
O        O      0.057600000000     0.333333333333     0.930050000000     0          
O        O      0.046633333333     0.397700000000     0.949050000000     0          
O        O      0.047233333333     0.440300000000     0.998450000000     0          
O        O      0.327733333333     0.333333333333     0.847250000000     0          
T        Si     0.117766666667     0.626433333333     0.881450000000     0          
T        Si     0.068166666667     0.626433333333     0.817450000000     0          
T        Si     0.004466666667     0.626266666667     0.854850000000     0          
T        Si     0.053766666667     0.626300000000     0.918850000000     0          
T        Si     0.293900000000     0.540400000000     0.968950000000     0          
T        Si     0.243433333333     0.540366666667     0.906400000000     0          
T        Si     0.284700000000     0.564700000000     0.851200000000     0          
T        Si     0.237800000000     0.539966666667     0.791050000000     0          
T        Si     0.162733333333     0.540033333333     0.809400000000     0          
T        Si     0.088933333333     0.564033333333     0.778050000000     0          
T        Si     0.168233333333     0.563933333333     0.880100000000     0          
T        Si     0.034800000000     0.564300000000     0.960800000000     0          
O        O      0.326033333333     0.560000000000     0.954600000000     0          
O        O      0.259166666667     0.542066666667     0.943550000000     0          
O        O      0.205300000000     0.558766666667     0.901800000000     0          
O        O      0.269633333333     0.560833333333     0.885350000000     0          
O        O      0.302800000000     0.602633333333     0.848750000000     0          
O        O      0.313400000000     0.534533333333     0.847450000000     0          
O        O      0.252900000000     0.560900000000     0.822950000000     0          
O        O      0.250866666667     0.558800000000     0.760150000000     0          
O        O      0.195433333333     0.540200000000     0.788250000000     0          
O        O      0.173800000000     0.559900000000     0.842800000000     0          
O        O      0.130266666667     0.560433333333     0.789950000000     0          
O        O      0.075233333333     0.602233333333     0.787350000000     0          
O        O      0.067633333333     0.534466666667     0.795400000000     0          
O        O      0.053266666667     0.534500000000     0.941200000000     0          
O        O      0.140933333333     0.534466666667     0.889350000000     0          
O        O      0.152366666667     0.602066666667     0.886700000000     0          
O        O      0.089300000000     0.614033333333     0.904750000000     0          
O        O      0.101033333333     0.623266666667     0.844700000000     0          
O        O      0.032866666667     0.613533333333     0.831650000000     0          
O        O      0.020900000000     0.622533333333     0.891600000000     0          
O        O      0.046633333333     0.602300000000     0.949050000000     0          
O        O      0.047233333333     0.559700000000     0.998450000000     0          
T        Si     0.215566666667     0.626433333333     0.618550000000     0          
T        Si     0.265166666667     0.626433333333     0.682550000000     0          
T        Si     0.328866666667     0.626266666667     0.645150000000     0          
T        Si     0.279566666667     0.626300000000     0.581150000000     0          
T        Si     0.039433333333     0.540400000000     0.531050000000     0          
T        Si     0.089900000000     0.540366666667     0.593600000000     0          
T        Si     0.048633333333     0.564700000000     0.648800000000     0          
T        Si     0.095533333333     0.539966666667     0.708950000000     0          
T        Si     0.170600000000     0.540033333333     0.690600000000     0          
T        Si     0.244400000000     0.564033333333     0.721950000000     0          
T        Si     0.165100000000     0.563933333333     0.619900000000     0          
T        Si     0.298533333333     0.564300000000     0.539200000000     0          
O        O      0.007300000000     0.560000000000     0.545400000000     0          
O        O      0.074166666667     0.542066666667     0.556450000000     0          
O        O      0.128033333333     0.558766666667     0.598200000000     0          
O        O      0.063700000000     0.560833333333     0.614650000000     0          
O        O      0.030533333333     0.602633333333     0.651250000000     0          
O        O      0.019933333333     0.534533333333     0.652550000000     0          
O        O      0.080433333333     0.560900000000     0.677050000000     0          
O        O      0.082466666667     0.558800000000     0.739850000000     0          
O        O      0.137900000000     0.540200000000     0.711750000000     0          
O        O      0.159533333333     0.559900000000     0.657200000000     0          
O        O      0.203066666667     0.560433333333     0.710050000000     0          
O        O      0.258100000000     0.602233333333     0.712650000000     0          
O        O      0.265700000000     0.534466666667     0.704600000000     0          
O        O      0.280066666667     0.534500000000     0.558800000000     0          
O        O      0.192400000000     0.534466666667     0.610650000000     0          
O        O      0.180966666667     0.602066666667     0.613300000000     0          
O        O      0.244033333333     0.614033333333     0.595250000000     0          
O        O      0.232300000000     0.623266666667     0.655300000000     0          
O        O      0.300466666667     0.613533333333     0.668350000000     0          
O        O      0.312433333333     0.622533333333     0.608400000000     0          
O        O      0.286700000000     0.602300000000     0.550950000000     0          
O        O      0.286100000000     0.559700000000     0.501550000000     0          
T        Si     0.215566666667     0.706900000000     0.118550000000     0          
T        Si     0.265166666667     0.706900000000     0.182550000000     0          
T        Si     0.328866666667     0.707066666667     0.145150000000     0          
T        Si     0.279566666667     0.707033333333     0.081150000000     0          
T        Si     0.039433333333     0.792933333333     0.031050000000     0          
T        Si     0.089900000000     0.792966666667     0.093600000000     0          
T        Si     0.048633333333     0.768633333333     0.148800000000     0          
T        Si     0.095533333333     0.793366666667     0.208950000000     0          
T        Si     0.170600000000     0.793300000000     0.190600000000     0          
T        Si     0.244400000000     0.769300000000     0.221950000000     0          
T        Si     0.165100000000     0.769400000000     0.119900000000     0          
T        Si     0.298533333333     0.769033333333     0.039200000000     0          
T        Si     0.263333333333     0.833333333333     0.182300000000     0          
T        Si     0.330466666667     0.833333333333     0.142450000000     0          
T        Si     0.282466666667     0.833333333333     0.081000000000     0          
T        Si     0.215300000000     0.833333333333     0.120800000000     0          
O        O      0.007300000000     0.773333333333     0.045400000000     0          
O        O      0.029166666667     0.833333333333     0.023650000000     0          
O        O      0.074166666667     0.791266666667     0.056450000000     0          
O        O      0.093366666667     0.833333333333     0.104850000000     0          
O        O      0.128033333333     0.774566666667     0.098200000000     0          
O        O      0.063700000000     0.772500000000     0.114650000000     0          
O        O      0.030533333333     0.730700000000     0.151250000000     0          
O        O      0.019933333333     0.798800000000     0.152550000000     0          
O        O      0.080433333333     0.772433333333     0.177050000000     0          
O        O      0.082466666667     0.774533333333     0.239850000000     0          
O        O      0.081766666667     0.833333333333     0.206850000000     0          
O        O      0.137900000000     0.793133333333     0.211750000000     0          
O        O      0.159533333333     0.773433333333     0.157200000000     0          
O        O      0.181400000000     0.833333333333     0.184100000000     0          
O        O      0.203066666667     0.772900000000     0.210050000000     0          
O        O      0.258100000000     0.731100000000     0.212650000000     0          
O        O      0.265700000000     0.798866666667     0.204600000000     0          
O        O      0.227033333333     0.833333333333     0.158850000000     0          
O        O      0.295766666667     0.833333333333     0.160950000000     0          
O        O      0.318800000000     0.833333333333     0.104450000000     0          
O        O      0.280066666667     0.798833333333     0.058800000000     0          
O        O      0.250033333333     0.833333333333     0.102350000000     0          
O        O      0.192400000000     0.798866666667     0.110650000000     0          
O        O      0.180966666667     0.731266666667     0.113300000000     0          
O        O      0.204833333333     0.666666666667     0.110850000000     0          
O        O      0.244033333333     0.719300000000     0.095250000000     0          
O        O      0.232300000000     0.710066666667     0.155300000000     0          
O        O      0.269733333333     0.666666666667     0.193950000000     0          
O        O      0.300466666667     0.719800000000     0.168350000000     0          
O        O      0.312433333333     0.710800000000     0.108400000000     0          
O        O      0.275733333333     0.666666666667     0.069950000000     0          
O        O      0.286700000000     0.731033333333     0.050950000000     0          
O        O      0.286100000000     0.773633333333     0.001550000000     0          
O        O      0.005600000000     0.666666666667     0.152750000000     0          
T        Si     0.117766666667     0.706900000000     0.381450000000     0          
T        Si     0.068166666667     0.706900000000     0.317450000000     0          
T        Si     0.004466666667     0.707066666667     0.354850000000     0          
T        Si     0.053766666667     0.707033333333     0.418850000000     0          
T        Si     0.293900000000     0.792933333333     0.468950000000     0          
T        Si     0.243433333333     0.792966666667     0.406400000000     0          
T        Si     0.284700000000     0.768633333333     0.351200000000     0          
T        Si     0.237800000000     0.793366666667     0.291050000000     0          
T        Si     0.162733333333     0.793300000000     0.309400000000     0          
T        Si     0.088933333333     0.769300000000     0.278050000000     0          
T        Si     0.168233333333     0.769400000000     0.380100000000     0          
T        Si     0.034800000000     0.769033333333     0.460800000000     0          
T        Si     0.070000000000     0.833333333333     0.317700000000     0          
T        Si     0.002866666667     0.833333333333     0.357550000000     0          
T        Si     0.050866666667     0.833333333333     0.419000000000     0          
T        Si     0.118033333333     0.833333333333     0.379200000000     0          
O        O      0.326033333333     0.773333333333     0.454600000000     0          
O        O      0.304166666667     0.833333333333     0.476350000000     0          
O        O      0.259166666667     0.791266666667     0.443550000000     0          
O        O      0.239966666667     0.833333333333     0.395150000000     0          
O        O      0.205300000000     0.774566666667     0.401800000000     0          
O        O      0.269633333333     0.772500000000     0.385350000000     0          
O        O      0.302800000000     0.730700000000     0.348750000000     0          
O        O      0.313400000000     0.798800000000     0.347450000000     0          
O        O      0.252900000000     0.772433333333     0.322950000000     0          
O        O      0.250866666667     0.774533333333     0.260150000000     0          
O        O      0.251566666667     0.833333333333     0.293150000000     0          
O        O      0.195433333333     0.793133333333     0.288250000000     0          
O        O      0.173800000000     0.773433333333     0.342800000000     0          
O        O      0.151933333333     0.833333333333     0.315900000000     0          
O        O      0.130266666667     0.772900000000     0.289950000000     0          
O        O      0.075233333333     0.731100000000     0.287350000000     0          
O        O      0.067633333333     0.798866666667     0.295400000000     0          
O        O      0.106300000000     0.833333333333     0.341150000000     0          
O        O      0.037566666667     0.833333333333     0.339050000000     0          
O        O      0.014533333333     0.833333333333     0.395550000000     0          
O        O      0.053266666667     0.798833333333     0.441200000000     0          
O        O      0.083300000000     0.833333333333     0.397650000000     0          
O        O      0.140933333333     0.798866666667     0.389350000000     0          
O        O      0.152366666667     0.731266666667     0.386700000000     0          
O        O      0.128500000000     0.666666666667     0.389150000000     0          
O        O      0.089300000000     0.719300000000     0.404750000000     0          
O        O      0.101033333333     0.710066666667     0.344700000000     0          
O        O      0.063600000000     0.666666666667     0.306050000000     0          
O        O      0.032866666667     0.719800000000     0.331650000000     0          
O        O      0.020900000000     0.710800000000     0.391600000000     0          
O        O      0.057600000000     0.666666666667     0.430050000000     0          
O        O      0.046633333333     0.731033333333     0.449050000000     0          
O        O      0.047233333333     0.773633333333     0.498450000000     0          
O        O      0.327733333333     0.666666666667     0.347250000000     0          
T        Si     0.117766666667     0.959766666667     0.381450000000     0          
T        Si     0.068166666667     0.959766666667     0.317450000000     0          
T        Si     0.004466666667     0.959600000000     0.354850000000     0          
T        Si     0.053766666667     0.959633333333     0.418850000000     0          
T        Si     0.293900000000     0.873733333333     0.468950000000     0          
T        Si     0.243433333333     0.873700000000     0.406400000000     0          
T        Si     0.284700000000     0.898033333333     0.351200000000     0          
T        Si     0.237800000000     0.873300000000     0.291050000000     0          
T        Si     0.162733333333     0.873366666667     0.309400000000     0          
T        Si     0.088933333333     0.897366666667     0.278050000000     0          
T        Si     0.168233333333     0.897266666667     0.380100000000     0          
T        Si     0.034800000000     0.897633333333     0.460800000000     0          
O        O      0.326033333333     0.893333333333     0.454600000000     0          
O        O      0.259166666667     0.875400000000     0.443550000000     0          
O        O      0.205300000000     0.892100000000     0.401800000000     0          
O        O      0.269633333333     0.894166666667     0.385350000000     0          
O        O      0.302800000000     0.935966666667     0.348750000000     0          
O        O      0.313400000000     0.867866666667     0.347450000000     0          
O        O      0.252900000000     0.894233333333     0.322950000000     0          
O        O      0.250866666667     0.892133333333     0.260150000000     0          
O        O      0.195433333333     0.873533333333     0.288250000000     0          
O        O      0.173800000000     0.893233333333     0.342800000000     0          
O        O      0.130266666667     0.893766666667     0.289950000000     0          
O        O      0.075233333333     0.935566666667     0.287350000000     0          
O        O      0.067633333333     0.867800000000     0.295400000000     0          
O        O      0.053266666667     0.867833333333     0.441200000000     0          
O        O      0.140933333333     0.867800000000     0.389350000000     0          
O        O      0.152366666667     0.935400000000     0.386700000000     0          
O        O      0.089300000000     0.947366666667     0.404750000000     0          
O        O      0.101033333333     0.956600000000     0.344700000000     0          
O        O      0.032866666667     0.946866666667     0.331650000000     0          
O        O      0.020900000000     0.955866666667     0.391600000000     0          
O        O      0.046633333333     0.935633333333     0.449050000000     0          
O        O      0.047233333333     0.893033333333     0.498450000000     0          
T        Si     0.215566666667     0.959766666667     0.118550000000     0          
T        Si     0.265166666667     0.959766666667     0.182550000000     0          
T        Si     0.328866666667     0.959600000000     0.145150000000     0          
T        Si     0.279566666667     0.959633333333     0.081150000000     0          
T        Si     0.039433333333     0.873733333333     0.031050000000     0          
T        Si     0.089900000000     0.873700000000     0.093600000000     0          
T        Si     0.048633333333     0.898033333333     0.148800000000     0          
T        Si     0.095533333333     0.873300000000     0.208950000000     0          
T        Si     0.170600000000     0.873366666667     0.190600000000     0          
T        Si     0.244400000000     0.897366666667     0.221950000000     0          
T        Si     0.165100000000     0.897266666667     0.119900000000     0          
T        Si     0.298533333333     0.897633333333     0.039200000000     0          
O        O      0.007300000000     0.893333333333     0.045400000000     0          
O        O      0.074166666667     0.875400000000     0.056450000000     0          
O        O      0.128033333333     0.892100000000     0.098200000000     0          
O        O      0.063700000000     0.894166666667     0.114650000000     0          
O        O      0.030533333333     0.935966666667     0.151250000000     0          
O        O      0.019933333333     0.867866666667     0.152550000000     0          
O        O      0.080433333333     0.894233333333     0.177050000000     0          
O        O      0.082466666667     0.892133333333     0.239850000000     0          
O        O      0.137900000000     0.873533333333     0.211750000000     0          
O        O      0.159533333333     0.893233333333     0.157200000000     0          
O        O      0.203066666667     0.893766666667     0.210050000000     0          
O        O      0.258100000000     0.935566666667     0.212650000000     0          
O        O      0.265700000000     0.867800000000     0.204600000000     0          
O        O      0.280066666667     0.867833333333     0.058800000000     0          
O        O      0.192400000000     0.867800000000     0.110650000000     0          
O        O      0.180966666667     0.935400000000     0.113300000000     0          
O        O      0.244033333333     0.947366666667     0.095250000000     0          
O        O      0.232300000000     0.956600000000     0.155300000000     0          
O        O      0.300466666667     0.946866666667     0.168350000000     0          
O        O      0.312433333333     0.955866666667     0.108400000000     0          
O        O      0.286700000000     0.935633333333     0.050950000000     0          
O        O      0.286100000000     0.893033333333     0.001550000000     0          
T        Si     0.215566666667     0.706900000000     0.618550000000     0          
T        Si     0.265166666667     0.706900000000     0.682550000000     0          
T        Si     0.328866666667     0.707066666667     0.645150000000     0          
T        Si     0.279566666667     0.707033333333     0.581150000000     0          
T        Si     0.039433333333     0.792933333333     0.531050000000     0          
T        Si     0.089900000000     0.792966666667     0.593600000000     0          
T        Si     0.048633333333     0.768633333333     0.648800000000     0          
T        Si     0.095533333333     0.793366666667     0.708950000000     0          
T        Si     0.170600000000     0.793300000000     0.690600000000     0          
T        Si     0.244400000000     0.769300000000     0.721950000000     0          
T        Si     0.165100000000     0.769400000000     0.619900000000     0          
T        Si     0.298533333333     0.769033333333     0.539200000000     0          
T        Si     0.263333333333     0.833333333333     0.682300000000     0          
T        Si     0.330466666667     0.833333333333     0.642450000000     0          
T        Si     0.282466666667     0.833333333333     0.581000000000     0          
T        Si     0.215300000000     0.833333333333     0.620800000000     0          
O        O      0.007300000000     0.773333333333     0.545400000000     0          
O        O      0.029166666667     0.833333333333     0.523650000000     0          
O        O      0.074166666667     0.791266666667     0.556450000000     0          
O        O      0.093366666667     0.833333333333     0.604850000000     0          
O        O      0.128033333333     0.774566666667     0.598200000000     0          
O        O      0.063700000000     0.772500000000     0.614650000000     0          
O        O      0.030533333333     0.730700000000     0.651250000000     0          
O        O      0.019933333333     0.798800000000     0.652550000000     0          
O        O      0.080433333333     0.772433333333     0.677050000000     0          
O        O      0.082466666667     0.774533333333     0.739850000000     0          
O        O      0.081766666667     0.833333333333     0.706850000000     0          
O        O      0.137900000000     0.793133333333     0.711750000000     0          
O        O      0.159533333333     0.773433333333     0.657200000000     0          
O        O      0.181400000000     0.833333333333     0.684100000000     0          
O        O      0.203066666667     0.772900000000     0.710050000000     0          
O        O      0.258100000000     0.731100000000     0.712650000000     0          
O        O      0.265700000000     0.798866666667     0.704600000000     0          
O        O      0.227033333333     0.833333333333     0.658850000000     0          
O        O      0.295766666667     0.833333333333     0.660950000000     0          
O        O      0.318800000000     0.833333333333     0.604450000000     0          
O        O      0.280066666667     0.798833333333     0.558800000000     0          
O        O      0.250033333333     0.833333333333     0.602350000000     0          
O        O      0.192400000000     0.798866666667     0.610650000000     0          
O        O      0.180966666667     0.731266666667     0.613300000000     0          
O        O      0.204833333333     0.666666666667     0.610850000000     0          
O        O      0.244033333333     0.719300000000     0.595250000000     0          
O        O      0.232300000000     0.710066666667     0.655300000000     0          
O        O      0.269733333333     0.666666666667     0.693950000000     0          
O        O      0.300466666667     0.719800000000     0.668350000000     0          
O        O      0.312433333333     0.710800000000     0.608400000000     0          
O        O      0.275733333333     0.666666666667     0.569950000000     0          
O        O      0.286700000000     0.731033333333     0.550950000000     0          
O        O      0.286100000000     0.773633333333     0.501550000000     0          
O        O      0.005600000000     0.666666666667     0.652750000000     0          
T        Si     0.117766666667     0.706900000000     0.881450000000     0          
T        Si     0.068166666667     0.706900000000     0.817450000000     0          
T        Si     0.004466666667     0.707066666667     0.854850000000     0          
T        Si     0.053766666667     0.707033333333     0.918850000000     0          
T        Si     0.293900000000     0.792933333333     0.968950000000     0          
T        Si     0.243433333333     0.792966666667     0.906400000000     0          
T        Si     0.284700000000     0.768633333333     0.851200000000     0          
T        Si     0.237800000000     0.793366666667     0.791050000000     0          
T        Si     0.162733333333     0.793300000000     0.809400000000     0          
T        Si     0.088933333333     0.769300000000     0.778050000000     0          
T        Si     0.168233333333     0.769400000000     0.880100000000     0          
T        Si     0.034800000000     0.769033333333     0.960800000000     0          
T        Si     0.070000000000     0.833333333333     0.817700000000     0          
T        Si     0.002866666667     0.833333333333     0.857550000000     0          
T        Si     0.050866666667     0.833333333333     0.919000000000     0          
T        Si     0.118033333333     0.833333333333     0.879200000000     0          
O        O      0.326033333333     0.773333333333     0.954600000000     0          
O        O      0.304166666667     0.833333333333     0.976350000000     0          
O        O      0.259166666667     0.791266666667     0.943550000000     0          
O        O      0.239966666667     0.833333333333     0.895150000000     0          
O        O      0.205300000000     0.774566666667     0.901800000000     0          
O        O      0.269633333333     0.772500000000     0.885350000000     0          
O        O      0.302800000000     0.730700000000     0.848750000000     0          
O        O      0.313400000000     0.798800000000     0.847450000000     0          
O        O      0.252900000000     0.772433333333     0.822950000000     0          
O        O      0.250866666667     0.774533333333     0.760150000000     0          
O        O      0.251566666667     0.833333333333     0.793150000000     0          
O        O      0.195433333333     0.793133333333     0.788250000000     0          
O        O      0.173800000000     0.773433333333     0.842800000000     0          
O        O      0.151933333333     0.833333333333     0.815900000000     0          
O        O      0.130266666667     0.772900000000     0.789950000000     0          
O        O      0.075233333333     0.731100000000     0.787350000000     0          
O        O      0.067633333333     0.798866666667     0.795400000000     0          
O        O      0.106300000000     0.833333333333     0.841150000000     0          
O        O      0.037566666667     0.833333333333     0.839050000000     0          
O        O      0.014533333333     0.833333333333     0.895550000000     0          
O        O      0.053266666667     0.798833333333     0.941200000000     0          
O        O      0.083300000000     0.833333333333     0.897650000000     0          
O        O      0.140933333333     0.798866666667     0.889350000000     0          
O        O      0.152366666667     0.731266666667     0.886700000000     0          
O        O      0.128500000000     0.666666666667     0.889150000000     0          
O        O      0.089300000000     0.719300000000     0.904750000000     0          
O        O      0.101033333333     0.710066666667     0.844700000000     0          
O        O      0.063600000000     0.666666666667     0.806050000000     0          
O        O      0.032866666667     0.719800000000     0.831650000000     0          
O        O      0.020900000000     0.710800000000     0.891600000000     0          
O        O      0.057600000000     0.666666666667     0.930050000000     0          
O        O      0.046633333333     0.731033333333     0.949050000000     0          
O        O      0.047233333333     0.773633333333     0.998450000000     0          
O        O      0.327733333333     0.666666666667     0.847250000000     0          
T        Si     0.117766666667     0.959766666667     0.881450000000     0          
T        Si     0.068166666667     0.959766666667     0.817450000000     0          
T        Si     0.004466666667     0.959600000000     0.854850000000     0          
T        Si     0.053766666667     0.959633333333     0.918850000000     0          
T        Si     0.293900000000     0.873733333333     0.968950000000     0          
T        Si     0.243433333333     0.873700000000     0.906400000000     0          
T        Si     0.284700000000     0.898033333333     0.851200000000     0          
T        Si     0.237800000000     0.873300000000     0.791050000000     0          
T        Si     0.162733333333     0.873366666667     0.809400000000     0          
T        Si     0.088933333333     0.897366666667     0.778050000000     0          
T        Si     0.168233333333     0.897266666667     0.880100000000     0          
T        Si     0.034800000000     0.897633333333     0.960800000000     0          
O        O      0.326033333333     0.893333333333     0.954600000000     0          
O        O      0.259166666667     0.875400000000     0.943550000000     0          
O        O      0.205300000000     0.892100000000     0.901800000000     0          
O        O      0.269633333333     0.894166666667     0.885350000000     0          
O        O      0.302800000000     0.935966666667     0.848750000000     0          
O        O      0.313400000000     0.867866666667     0.847450000000     0          
O        O      0.252900000000     0.894233333333     0.822950000000     0          
O        O      0.250866666667     0.892133333333     0.760150000000     0          
O        O      0.195433333333     0.873533333333     0.788250000000     0          
O        O      0.173800000000     0.893233333333     0.842800000000     0          
O        O      0.130266666667     0.893766666667     0.789950000000     0          
O        O      0.075233333333     0.935566666667     0.787350000000     0          
O        O      0.067633333333     0.867800000000     0.795400000000     0          
O        O      0.053266666667     0.867833333333     0.941200000000     0          
O        O      0.140933333333     0.867800000000     0.889350000000     0          
O        O      0.152366666667     0.935400000000     0.886700000000     0          
O        O      0.089300000000     0.947366666667     0.904750000000     0          
O        O      0.101033333333     0.956600000000     0.844700000000     0          
O        O      0.032866666667     0.946866666667     0.831650000000     0          
O        O      0.020900000000     0.955866666667     0.891600000000     0          
O        O      0.046633333333     0.935633333333     0.949050000000     0          
O        O      0.047233333333     0.893033333333     0.998450000000     0          
T        Si     0.215566666667     0.959766666667     0.618550000000     0          
T        Si     0.265166666667     0.959766666667     0.682550000000     0          
T        Si     0.328866666667     0.959600000000     0.645150000000     0          
T        Si     0.279566666667     0.959633333333     0.581150000000     0          
T        Si     0.039433333333     0.873733333333     0.531050000000     0          
T        Si     0.089900000000     0.873700000000     0.593600000000     0          
T        Si     0.048633333333     0.898033333333     0.648800000000     0          
T        Si     0.095533333333     0.873300000000     0.708950000000     0          
T        Si     0.170600000000     0.873366666667     0.690600000000     0          
T        Si     0.244400000000     0.897366666667     0.721950000000     0          
T        Si     0.165100000000     0.897266666667     0.619900000000     0          
T        Si     0.298533333333     0.897633333333     0.539200000000     0          
O        O      0.007300000000     0.893333333333     0.545400000000     0          
O        O      0.074166666667     0.875400000000     0.556450000000     0          
O        O      0.128033333333     0.892100000000     0.598200000000     0          
O        O      0.063700000000     0.894166666667     0.614650000000     0          
O        O      0.030533333333     0.935966666667     0.651250000000     0          
O        O      0.019933333333     0.867866666667     0.652550000000     0          
O        O      0.080433333333     0.894233333333     0.677050000000     0          
O        O      0.082466666667     0.892133333333     0.739850000000     0          
O        O      0.137900000000     0.873533333333     0.711750000000     0          
O        O      0.159533333333     0.893233333333     0.657200000000     0          
O        O      0.203066666667     0.893766666667     0.710050000000     0          
O        O      0.258100000000     0.935566666667     0.712650000000     0          
O        O      0.265700000000     0.867800000000     0.704600000000     0          
O        O      0.280066666667     0.867833333333     0.558800000000     0          
O        O      0.192400000000     0.867800000000     0.610650000000     0          
O        O      0.180966666667     0.935400000000     0.613300000000     0          
O        O      0.244033333333     0.947366666667     0.595250000000     0          
O        O      0.232300000000     0.956600000000     0.655300000000     0          
O        O      0.300466666667     0.946866666667     0.668350000000     0          
O        O      0.312433333333     0.955866666667     0.608400000000     0          
O        O      0.286700000000     0.935633333333     0.550950000000     0          
O        O      0.286100000000     0.893033333333     0.501550000000     0          
T        Si     0.548900000000     0.040233333333     0.118550000000     0          
T        Si     0.598500000000     0.040233333333     0.182550000000     0          
T        Si     0.662200000000     0.040400000000     0.145150000000     0          
T        Si     0.612900000000     0.040366666667     0.081150000000     0          
T        Si     0.372766666667     0.126266666667     0.031050000000     0          
T        Si     0.423233333333     0.126300000000     0.093600000000     0          
T        Si     0.381966666667     0.101966666667     0.148800000000     0          
T        Si     0.428866666667     0.126700000000     0.208950000000     0          
T        Si     0.503933333333     0.126633333333     0.190600000000     0          
T        Si     0.577733333333     0.102633333333     0.221950000000     0          
T        Si     0.498433333333     0.102733333333     0.119900000000     0          
T        Si     0.631866666667     0.102366666667     0.039200000000     0          
T        Si     0.596666666667     0.166666666667     0.182300000000     0          
T        Si     0.663800000000     0.166666666667     0.142450000000     0          
T        Si     0.615800000000     0.166666666667     0.081000000000     0          
T        Si     0.548633333333     0.166666666667     0.120800000000     0          
O        O      0.340633333333     0.106666666667     0.045400000000     0          
O        O      0.362500000000     0.166666666667     0.023650000000     0          
O        O      0.407500000000     0.124600000000     0.056450000000     0          
O        O      0.426700000000     0.166666666667     0.104850000000     0          
O        O      0.461366666667     0.107900000000     0.098200000000     0          
O        O      0.397033333333     0.105833333333     0.114650000000     0          
O        O      0.363866666667     0.064033333333     0.151250000000     0          
O        O      0.353266666667     0.132133333333     0.152550000000     0          
O        O      0.413766666667     0.105766666667     0.177050000000     0          
O        O      0.415800000000     0.107866666667     0.239850000000     0          
O        O      0.415100000000     0.166666666667     0.206850000000     0          
O        O      0.471233333333     0.126466666667     0.211750000000     0          
O        O      0.492866666667     0.106766666667     0.157200000000     0          
O        O      0.514733333333     0.166666666667     0.184100000000     0          
O        O      0.536400000000     0.106233333333     0.210050000000     0          
O        O      0.591433333333     0.064433333333     0.212650000000     0          
O        O      0.599033333333     0.132200000000     0.204600000000     0          
O        O      0.560366666667     0.166666666667     0.158850000000     0          
O        O      0.629100000000     0.166666666667     0.160950000000     0          
O        O      0.652133333333     0.166666666667     0.104450000000     0          
O        O      0.613400000000     0.132166666667     0.058800000000     0          
O        O      0.583366666667     0.166666666667     0.102350000000     0          
O        O      0.525733333333     0.132200000000     0.110650000000     0          
O        O      0.514300000000     0.064600000000     0.113300000000     0          
O        O      0.538166666667     0.000000000000     0.110850000000     0          
O        O      0.577366666667     0.052633333333     0.095250000000     0          
O        O      0.565633333333     0.043400000000     0.155300000000     0          
O        O      0.603066666667     0.000000000000     0.193950000000     0          
O        O      0.633800000000     0.053133333333     0.168350000000     0          
O        O      0.645766666667     0.044133333333     0.108400000000     0          
O        O      0.609066666667     0.000000000000     0.069950000000     0          
O        O      0.620033333333     0.064366666667     0.050950000000     0          
O        O      0.619433333333     0.106966666667     0.001550000000     0          
O        O      0.338933333333     0.000000000000     0.152750000000     0          
T        Si     0.451100000000     0.040233333333     0.381450000000     0          
T        Si     0.401500000000     0.040233333333     0.317450000000     0          
T        Si     0.337800000000     0.040400000000     0.354850000000     0          
T        Si     0.387100000000     0.040366666667     0.418850000000     0          
T        Si     0.627233333333     0.126266666667     0.468950000000     0          
T        Si     0.576766666667     0.126300000000     0.406400000000     0          
T        Si     0.618033333333     0.101966666667     0.351200000000     0          
T        Si     0.571133333333     0.126700000000     0.291050000000     0          
T        Si     0.496066666667     0.126633333333     0.309400000000     0          
T        Si     0.422266666667     0.102633333333     0.278050000000     0          
T        Si     0.501566666667     0.102733333333     0.380100000000     0          
T        Si     0.368133333333     0.102366666667     0.460800000000     0          
T        Si     0.403333333333     0.166666666667     0.317700000000     0          
T        Si     0.336200000000     0.166666666667     0.357550000000     0          
T        Si     0.384200000000     0.166666666667     0.419000000000     0          
T        Si     0.451366666667     0.166666666667     0.379200000000     0          
O        O      0.659366666667     0.106666666667     0.454600000000     0          
O        O      0.637500000000     0.166666666667     0.476350000000     0          
O        O      0.592500000000     0.124600000000     0.443550000000     0          
O        O      0.573300000000     0.166666666667     0.395150000000     0          
O        O      0.538633333333     0.107900000000     0.401800000000     0          
O        O      0.602966666667     0.105833333333     0.385350000000     0          
O        O      0.636133333333     0.064033333333     0.348750000000     0          
O        O      0.646733333333     0.132133333333     0.347450000000     0          
O        O      0.586233333333     0.105766666667     0.322950000000     0          
O        O      0.584200000000     0.107866666667     0.260150000000     0          
O        O      0.584900000000     0.166666666667     0.293150000000     0          
O        O      0.528766666667     0.126466666667     0.288250000000     0          
O        O      0.507133333333     0.106766666667     0.342800000000     0          
O        O      0.485266666667     0.166666666667     0.315900000000     0          
O        O      0.463600000000     0.106233333333     0.289950000000     0          
O        O      0.408566666667     0.064433333333     0.287350000000     0          
O        O      0.400966666667     0.132200000000     0.295400000000     0          
O        O      0.439633333333     0.166666666667     0.341150000000     0          
O        O      0.370900000000     0.166666666667     0.339050000000     0          
O        O      0.347866666667     0.166666666667     0.395550000000     0          
O        O      0.386600000000     0.132166666667     0.441200000000     0          
O        O      0.416633333333     0.166666666667     0.397650000000     0          
O        O      0.474266666667     0.132200000000     0.389350000000     0          
O        O      0.485700000000     0.064600000000     0.386700000000     0          
O        O      0.461833333333     0.000000000000     0.389150000000     0          
O        O      0.422633333333     0.052633333333     0.404750000000     0          
O        O      0.434366666667     0.043400000000     0.344700000000     0          
O        O      0.396933333333     0.000000000000     0.306050000000     0          
O        O      0.366200000000     0.053133333333     0.331650000000     0          
O        O      0.354233333333     0.044133333333     0.391600000000     0          
O        O      0.390933333333     0.000000000000     0.430050000000     0          
O        O      0.379966666667     0.064366666667     0.449050000000     0          
O        O      0.380566666667     0.106966666667     0.498450000000     0          
O        O      0.661066666667     0.000000000000     0.347250000000     0          
T        Si     0.451100000000     0.293100000000     0.381450000000     0          
T        Si     0.401500000000     0.293100000000     0.317450000000     0          
T        Si     0.337800000000     0.292933333333     0.354850000000     0          
T        Si     0.387100000000     0.292966666667     0.418850000000     0          
T        Si     0.627233333333     0.207066666667     0.468950000000     0          
T        Si     0.576766666667     0.207033333333     0.406400000000     0          
T        Si     0.618033333333     0.231366666667     0.351200000000     0          
T        Si     0.571133333333     0.206633333333     0.291050000000     0          
T        Si     0.496066666667     0.206700000000     0.309400000000     0          
T        Si     0.422266666667     0.230700000000     0.278050000000     0          
T        Si     0.501566666667     0.230600000000     0.380100000000     0          
T        Si     0.368133333333     0.230966666667     0.460800000000     0          
O        O      0.659366666667     0.226666666667     0.454600000000     0          
O        O      0.592500000000     0.208733333333     0.443550000000     0          
O        O      0.538633333333     0.225433333333     0.401800000000     0          
O        O      0.602966666667     0.227500000000     0.385350000000     0          
O        O      0.636133333333     0.269300000000     0.348750000000     0          
O        O      0.646733333333     0.201200000000     0.347450000000     0          
O        O      0.586233333333     0.227566666667     0.322950000000     0          
O        O      0.584200000000     0.225466666667     0.260150000000     0          
O        O      0.528766666667     0.206866666667     0.288250000000     0          
O        O      0.507133333333     0.226566666667     0.342800000000     0          
O        O      0.463600000000     0.227100000000     0.289950000000     0          
O        O      0.408566666667     0.268900000000     0.287350000000     0          
O        O      0.400966666667     0.201133333333     0.295400000000     0          
O        O      0.386600000000     0.201166666667     0.441200000000     0          
O        O      0.474266666667     0.201133333333     0.389350000000     0          
O        O      0.485700000000     0.268733333333     0.386700000000     0          
O        O      0.422633333333     0.280700000000     0.404750000000     0          
O        O      0.434366666667     0.289933333333     0.344700000000     0          
O        O      0.366200000000     0.280200000000     0.331650000000     0          
O        O      0.354233333333     0.289200000000     0.391600000000     0          
O        O      0.379966666667     0.268966666667     0.449050000000     0          
O        O      0.380566666667     0.226366666667     0.498450000000     0          
T        Si     0.548900000000     0.293100000000     0.118550000000     0          
T        Si     0.598500000000     0.293100000000     0.182550000000     0          
T        Si     0.662200000000     0.292933333333     0.145150000000     0          
T        Si     0.612900000000     0.292966666667     0.081150000000     0          
T        Si     0.372766666667     0.207066666667     0.031050000000     0          
T        Si     0.423233333333     0.207033333333     0.093600000000     0          
T        Si     0.381966666667     0.231366666667     0.148800000000     0          
T        Si     0.428866666667     0.206633333333     0.208950000000     0          
T        Si     0.503933333333     0.206700000000     0.190600000000     0          
T        Si     0.577733333333     0.230700000000     0.221950000000     0          
T        Si     0.498433333333     0.230600000000     0.119900000000     0          
T        Si     0.631866666667     0.230966666667     0.039200000000     0          
O        O      0.340633333333     0.226666666667     0.045400000000     0          
O        O      0.407500000000     0.208733333333     0.056450000000     0          
O        O      0.461366666667     0.225433333333     0.098200000000     0          
O        O      0.397033333333     0.227500000000     0.114650000000     0          
O        O      0.363866666667     0.269300000000     0.151250000000     0          
O        O      0.353266666667     0.201200000000     0.152550000000     0          
O        O      0.413766666667     0.227566666667     0.177050000000     0          
O        O      0.415800000000     0.225466666667     0.239850000000     0          
O        O      0.471233333333     0.206866666667     0.211750000000     0          
O        O      0.492866666667     0.226566666667     0.157200000000     0          
O        O      0.536400000000     0.227100000000     0.210050000000     0          
O        O      0.591433333333     0.268900000000     0.212650000000     0          
O        O      0.599033333333     0.201133333333     0.204600000000     0          
O        O      0.613400000000     0.201166666667     0.058800000000     0          
O        O      0.525733333333     0.201133333333     0.110650000000     0          
O        O      0.514300000000     0.268733333333     0.113300000000     0          
O        O      0.577366666667     0.280700000000     0.095250000000     0          
O        O      0.565633333333     0.289933333333     0.155300000000     0          
O        O      0.633800000000     0.280200000000     0.168350000000     0          
O        O      0.645766666667     0.289200000000     0.108400000000     0          
O        O      0.620033333333     0.268966666667     0.050950000000     0          
O        O      0.619433333333     0.226366666667     0.001550000000     0          
T        Si     0.548900000000     0.040233333333     0.618550000000     0          
T        Si     0.598500000000     0.040233333333     0.682550000000     0          
T        Si     0.662200000000     0.040400000000     0.645150000000     0          
T        Si     0.612900000000     0.040366666667     0.581150000000     0          
T        Si     0.372766666667     0.126266666667     0.531050000000     0          
T        Si     0.423233333333     0.126300000000     0.593600000000     0          
T        Si     0.381966666667     0.101966666667     0.648800000000     0          
T        Si     0.428866666667     0.126700000000     0.708950000000     0          
T        Si     0.503933333333     0.126633333333     0.690600000000     0          
T        Si     0.577733333333     0.102633333333     0.721950000000     0          
T        Si     0.498433333333     0.102733333333     0.619900000000     0          
T        Si     0.631866666667     0.102366666667     0.539200000000     0          
T        Si     0.596666666667     0.166666666667     0.682300000000     0          
T        Si     0.663800000000     0.166666666667     0.642450000000     0          
T        Si     0.615800000000     0.166666666667     0.581000000000     0          
T        Si     0.548633333333     0.166666666667     0.620800000000     0          
O        O      0.340633333333     0.106666666667     0.545400000000     0          
O        O      0.362500000000     0.166666666667     0.523650000000     0          
O        O      0.407500000000     0.124600000000     0.556450000000     0          
O        O      0.426700000000     0.166666666667     0.604850000000     0          
O        O      0.461366666667     0.107900000000     0.598200000000     0          
O        O      0.397033333333     0.105833333333     0.614650000000     0          
O        O      0.363866666667     0.064033333333     0.651250000000     0          
O        O      0.353266666667     0.132133333333     0.652550000000     0          
O        O      0.413766666667     0.105766666667     0.677050000000     0          
O        O      0.415800000000     0.107866666667     0.739850000000     0          
O        O      0.415100000000     0.166666666667     0.706850000000     0          
O        O      0.471233333333     0.126466666667     0.711750000000     0          
O        O      0.492866666667     0.106766666667     0.657200000000     0          
O        O      0.514733333333     0.166666666667     0.684100000000     0          
O        O      0.536400000000     0.106233333333     0.710050000000     0          
O        O      0.591433333333     0.064433333333     0.712650000000     0          
O        O      0.599033333333     0.132200000000     0.704600000000     0          
O        O      0.560366666667     0.166666666667     0.658850000000     0          
O        O      0.629100000000     0.166666666667     0.660950000000     0          
O        O      0.652133333333     0.166666666667     0.604450000000     0          
O        O      0.613400000000     0.132166666667     0.558800000000     0          
O        O      0.583366666667     0.166666666667     0.602350000000     0          
O        O      0.525733333333     0.132200000000     0.610650000000     0          
O        O      0.514300000000     0.064600000000     0.613300000000     0          
O        O      0.538166666667     0.000000000000     0.610850000000     0          
O        O      0.577366666667     0.052633333333     0.595250000000     0          
O        O      0.565633333333     0.043400000000     0.655300000000     0          
O        O      0.603066666667     0.000000000000     0.693950000000     0          
O        O      0.633800000000     0.053133333333     0.668350000000     0          
O        O      0.645766666667     0.044133333333     0.608400000000     0          
O        O      0.609066666667     0.000000000000     0.569950000000     0          
O        O      0.620033333333     0.064366666667     0.550950000000     0          
O        O      0.619433333333     0.106966666667     0.501550000000     0          
O        O      0.338933333333     0.000000000000     0.652750000000     0          
T        Si     0.451100000000     0.040233333333     0.881450000000     0          
T        Si     0.401500000000     0.040233333333     0.817450000000     0          
T        Si     0.337800000000     0.040400000000     0.854850000000     0          
T        Si     0.387100000000     0.040366666667     0.918850000000     0          
T        Si     0.627233333333     0.126266666667     0.968950000000     0          
T        Si     0.576766666667     0.126300000000     0.906400000000     0          
T        Si     0.618033333333     0.101966666667     0.851200000000     0          
T        Si     0.571133333333     0.126700000000     0.791050000000     0          
T        Si     0.496066666667     0.126633333333     0.809400000000     0          
T        Si     0.422266666667     0.102633333333     0.778050000000     0          
T        Si     0.501566666667     0.102733333333     0.880100000000     0          
T        Si     0.368133333333     0.102366666667     0.960800000000     0          
T        Si     0.403333333333     0.166666666667     0.817700000000     0          
T        Si     0.336200000000     0.166666666667     0.857550000000     0          
T        Si     0.384200000000     0.166666666667     0.919000000000     0          
T        Si     0.451366666667     0.166666666667     0.879200000000     0          
O        O      0.659366666667     0.106666666667     0.954600000000     0          
O        O      0.637500000000     0.166666666667     0.976350000000     0          
O        O      0.592500000000     0.124600000000     0.943550000000     0          
O        O      0.573300000000     0.166666666667     0.895150000000     0          
O        O      0.538633333333     0.107900000000     0.901800000000     0          
O        O      0.602966666667     0.105833333333     0.885350000000     0          
O        O      0.636133333333     0.064033333333     0.848750000000     0          
O        O      0.646733333333     0.132133333333     0.847450000000     0          
O        O      0.586233333333     0.105766666667     0.822950000000     0          
O        O      0.584200000000     0.107866666667     0.760150000000     0          
O        O      0.584900000000     0.166666666667     0.793150000000     0          
O        O      0.528766666667     0.126466666667     0.788250000000     0          
O        O      0.507133333333     0.106766666667     0.842800000000     0          
O        O      0.485266666667     0.166666666667     0.815900000000     0          
O        O      0.463600000000     0.106233333333     0.789950000000     0          
O        O      0.408566666667     0.064433333333     0.787350000000     0          
O        O      0.400966666667     0.132200000000     0.795400000000     0          
O        O      0.439633333333     0.166666666667     0.841150000000     0          
O        O      0.370900000000     0.166666666667     0.839050000000     0          
O        O      0.347866666667     0.166666666667     0.895550000000     0          
O        O      0.386600000000     0.132166666667     0.941200000000     0          
O        O      0.416633333333     0.166666666667     0.897650000000     0          
O        O      0.474266666667     0.132200000000     0.889350000000     0          
O        O      0.485700000000     0.064600000000     0.886700000000     0          
O        O      0.461833333333     0.000000000000     0.889150000000     0          
O        O      0.422633333333     0.052633333333     0.904750000000     0          
O        O      0.434366666667     0.043400000000     0.844700000000     0          
O        O      0.396933333333     0.000000000000     0.806050000000     0          
O        O      0.366200000000     0.053133333333     0.831650000000     0          
O        O      0.354233333333     0.044133333333     0.891600000000     0          
O        O      0.390933333333     0.000000000000     0.930050000000     0          
O        O      0.379966666667     0.064366666667     0.949050000000     0          
O        O      0.380566666667     0.106966666667     0.998450000000     0          
O        O      0.661066666667     0.000000000000     0.847250000000     0          
T        Si     0.451100000000     0.293100000000     0.881450000000     0          
T        Si     0.401500000000     0.293100000000     0.817450000000     0          
T        Si     0.337800000000     0.292933333333     0.854850000000     0          
T        Si     0.387100000000     0.292966666667     0.918850000000     0          
T        Si     0.627233333333     0.207066666667     0.968950000000     0          
T        Si     0.576766666667     0.207033333333     0.906400000000     0          
T        Si     0.618033333333     0.231366666667     0.851200000000     0          
T        Si     0.571133333333     0.206633333333     0.791050000000     0          
T        Si     0.496066666667     0.206700000000     0.809400000000     0          
T        Si     0.422266666667     0.230700000000     0.778050000000     0          
T        Si     0.501566666667     0.230600000000     0.880100000000     0          
T        Si     0.368133333333     0.230966666667     0.960800000000     0          
O        O      0.659366666667     0.226666666667     0.954600000000     0          
O        O      0.592500000000     0.208733333333     0.943550000000     0          
O        O      0.538633333333     0.225433333333     0.901800000000     0          
O        O      0.602966666667     0.227500000000     0.885350000000     0          
O        O      0.636133333333     0.269300000000     0.848750000000     0          
O        O      0.646733333333     0.201200000000     0.847450000000     0          
O        O      0.586233333333     0.227566666667     0.822950000000     0          
O        O      0.584200000000     0.225466666667     0.760150000000     0          
O        O      0.528766666667     0.206866666667     0.788250000000     0          
O        O      0.507133333333     0.226566666667     0.842800000000     0          
O        O      0.463600000000     0.227100000000     0.789950000000     0          
O        O      0.408566666667     0.268900000000     0.787350000000     0          
O        O      0.400966666667     0.201133333333     0.795400000000     0          
O        O      0.386600000000     0.201166666667     0.941200000000     0          
O        O      0.474266666667     0.201133333333     0.889350000000     0          
O        O      0.485700000000     0.268733333333     0.886700000000     0          
O        O      0.422633333333     0.280700000000     0.904750000000     0          
O        O      0.434366666667     0.289933333333     0.844700000000     0          
O        O      0.366200000000     0.280200000000     0.831650000000     0          
O        O      0.354233333333     0.289200000000     0.891600000000     0          
O        O      0.379966666667     0.268966666667     0.949050000000     0          
O        O      0.380566666667     0.226366666667     0.998450000000     0          
T        Si     0.548900000000     0.293100000000     0.618550000000     0          
T        Si     0.598500000000     0.293100000000     0.682550000000     0          
T        Si     0.662200000000     0.292933333333     0.645150000000     0          
T        Si     0.612900000000     0.292966666667     0.581150000000     0          
T        Si     0.372766666667     0.207066666667     0.531050000000     0          
T        Si     0.423233333333     0.207033333333     0.593600000000     0          
T        Si     0.381966666667     0.231366666667     0.648800000000     0          
T        Si     0.428866666667     0.206633333333     0.708950000000     0          
T        Si     0.503933333333     0.206700000000     0.690600000000     0          
T        Si     0.577733333333     0.230700000000     0.721950000000     0          
T        Si     0.498433333333     0.230600000000     0.619900000000     0          
T        Si     0.631866666667     0.230966666667     0.539200000000     0          
O        O      0.340633333333     0.226666666667     0.545400000000     0          
O        O      0.407500000000     0.208733333333     0.556450000000     0          
O        O      0.461366666667     0.225433333333     0.598200000000     0          
O        O      0.397033333333     0.227500000000     0.614650000000     0          
O        O      0.363866666667     0.269300000000     0.651250000000     0          
O        O      0.353266666667     0.201200000000     0.652550000000     0          
O        O      0.413766666667     0.227566666667     0.677050000000     0          
O        O      0.415800000000     0.225466666667     0.739850000000     0          
O        O      0.471233333333     0.206866666667     0.711750000000     0          
O        O      0.492866666667     0.226566666667     0.657200000000     0          
O        O      0.536400000000     0.227100000000     0.710050000000     0          
O        O      0.591433333333     0.268900000000     0.712650000000     0          
O        O      0.599033333333     0.201133333333     0.704600000000     0          
O        O      0.613400000000     0.201166666667     0.558800000000     0          
O        O      0.525733333333     0.201133333333     0.610650000000     0          
O        O      0.514300000000     0.268733333333     0.613300000000     0          
O        O      0.577366666667     0.280700000000     0.595250000000     0          
O        O      0.565633333333     0.289933333333     0.655300000000     0          
O        O      0.633800000000     0.280200000000     0.668350000000     0          
O        O      0.645766666667     0.289200000000     0.608400000000     0          
O        O      0.620033333333     0.268966666667     0.550950000000     0          
O        O      0.619433333333     0.226366666667     0.501550000000     0          
T        Si     0.548900000000     0.373566666667     0.118550000000     0          
T        Si     0.598500000000     0.373566666667     0.182550000000     0          
T        Si     0.662200000000     0.373733333333     0.145150000000     0          
T        Si     0.612900000000     0.373700000000     0.081150000000     0          
T        Si     0.372766666667     0.459600000000     0.031050000000     0          
T        Si     0.423233333333     0.459633333333     0.093600000000     0          
T        Si     0.381966666667     0.435300000000     0.148800000000     0          
T        Si     0.428866666667     0.460033333333     0.208950000000     0          
T        Si     0.503933333333     0.459966666667     0.190600000000     0          
T        Si     0.577733333333     0.435966666667     0.221950000000     0          
T        Si     0.498433333333     0.436066666667     0.119900000000     0          
T        Si     0.631866666667     0.435700000000     0.039200000000     0          
T        Si     0.596666666667     0.500000000000     0.182300000000     0          
T        Si     0.663800000000     0.500000000000     0.142450000000     0          
T        Si     0.615800000000     0.500000000000     0.081000000000     0          
T        Si     0.548633333333     0.500000000000     0.120800000000     0          
O        O      0.340633333333     0.440000000000     0.045400000000     0          
O        O      0.362500000000     0.500000000000     0.023650000000     0          
O        O      0.407500000000     0.457933333333     0.056450000000     0          
O        O      0.426700000000     0.500000000000     0.104850000000     0          
O        O      0.461366666667     0.441233333333     0.098200000000     0          
O        O      0.397033333333     0.439166666667     0.114650000000     0          
O        O      0.363866666667     0.397366666667     0.151250000000     0          
O        O      0.353266666667     0.465466666667     0.152550000000     0          
O        O      0.413766666667     0.439100000000     0.177050000000     0          
O        O      0.415800000000     0.441200000000     0.239850000000     0          
O        O      0.415100000000     0.500000000000     0.206850000000     0          
O        O      0.471233333333     0.459800000000     0.211750000000     0          
O        O      0.492866666667     0.440100000000     0.157200000000     0          
O        O      0.514733333333     0.500000000000     0.184100000000     0          
O        O      0.536400000000     0.439566666667     0.210050000000     0          
O        O      0.591433333333     0.397766666667     0.212650000000     0          
O        O      0.599033333333     0.465533333333     0.204600000000     0          
O        O      0.560366666667     0.500000000000     0.158850000000     0          
O        O      0.629100000000     0.500000000000     0.160950000000     0          
O        O      0.652133333333     0.500000000000     0.104450000000     0          
O        O      0.613400000000     0.465500000000     0.058800000000     0          
O        O      0.583366666667     0.500000000000     0.102350000000     0          
O        O      0.525733333333     0.465533333333     0.110650000000     0          
O        O      0.514300000000     0.397933333333     0.113300000000     0          
O        O      0.538166666667     0.333333333333     0.110850000000     0          
O        O      0.577366666667     0.385966666667     0.095250000000     0          
O        O      0.565633333333     0.376733333333     0.155300000000     0          
O        O      0.603066666667     0.333333333333     0.193950000000     0          
O        O      0.633800000000     0.386466666667     0.168350000000     0          
O        O      0.645766666667     0.377466666667     0.108400000000     0          
O        O      0.609066666667     0.333333333333     0.069950000000     0          
O        O      0.620033333333     0.397700000000     0.050950000000     0          
O        O      0.619433333333     0.440300000000     0.001550000000     0          
O        O      0.338933333333     0.333333333333     0.152750000000     0          
T        Si     0.451100000000     0.373566666667     0.381450000000     0          
T        Si     0.401500000000     0.373566666667     0.317450000000     0          
T        Si     0.337800000000     0.373733333333     0.354850000000     0          
T        Si     0.387100000000     0.373700000000     0.418850000000     0          
T        Si     0.627233333333     0.459600000000     0.468950000000     0          
T        Si     0.576766666667     0.459633333333     0.406400000000     0          
T        Si     0.618033333333     0.435300000000     0.351200000000     0          
T        Si     0.571133333333     0.460033333333     0.291050000000     0          
T        Si     0.496066666667     0.459966666667     0.309400000000     0          
T        Si     0.422266666667     0.435966666667     0.278050000000     0          
T        Si     0.501566666667     0.436066666667     0.380100000000     0          
T        Si     0.368133333333     0.435700000000     0.460800000000     0          
T        Si     0.403333333333     0.500000000000     0.317700000000     0          
T        Si     0.336200000000     0.500000000000     0.357550000000     0          
T        Si     0.384200000000     0.500000000000     0.419000000000     0          
T        Si     0.451366666667     0.500000000000     0.379200000000     0          
O        O      0.659366666667     0.440000000000     0.454600000000     0          
O        O      0.637500000000     0.500000000000     0.476350000000     0          
O        O      0.592500000000     0.457933333333     0.443550000000     0          
O        O      0.573300000000     0.500000000000     0.395150000000     0          
O        O      0.538633333333     0.441233333333     0.401800000000     0          
O        O      0.602966666667     0.439166666667     0.385350000000     0          
O        O      0.636133333333     0.397366666667     0.348750000000     0          
O        O      0.646733333333     0.465466666667     0.347450000000     0          
O        O      0.586233333333     0.439100000000     0.322950000000     0          
O        O      0.584200000000     0.441200000000     0.260150000000     0          
O        O      0.584900000000     0.500000000000     0.293150000000     0          
O        O      0.528766666667     0.459800000000     0.288250000000     0          
O        O      0.507133333333     0.440100000000     0.342800000000     0          
O        O      0.485266666667     0.500000000000     0.315900000000     0          
O        O      0.463600000000     0.439566666667     0.289950000000     0          
O        O      0.408566666667     0.397766666667     0.287350000000     0          
O        O      0.400966666667     0.465533333333     0.295400000000     0          
O        O      0.439633333333     0.500000000000     0.341150000000     0          
O        O      0.370900000000     0.500000000000     0.339050000000     0          
O        O      0.347866666667     0.500000000000     0.395550000000     0          
O        O      0.386600000000     0.465500000000     0.441200000000     0          
O        O      0.416633333333     0.500000000000     0.397650000000     0          
O        O      0.474266666667     0.465533333333     0.389350000000     0          
O        O      0.485700000000     0.397933333333     0.386700000000     0          
O        O      0.461833333333     0.333333333333     0.389150000000     0          
O        O      0.422633333333     0.385966666667     0.404750000000     0          
O        O      0.434366666667     0.376733333333     0.344700000000     0          
O        O      0.396933333333     0.333333333333     0.306050000000     0          
O        O      0.366200000000     0.386466666667     0.331650000000     0          
O        O      0.354233333333     0.377466666667     0.391600000000     0          
O        O      0.390933333333     0.333333333333     0.430050000000     0          
O        O      0.379966666667     0.397700000000     0.449050000000     0          
O        O      0.380566666667     0.440300000000     0.498450000000     0          
O        O      0.661066666667     0.333333333333     0.347250000000     0          
T        Si     0.451100000000     0.626433333333     0.381450000000     0          
T        Si     0.401500000000     0.626433333333     0.317450000000     0          
T        Si     0.337800000000     0.626266666667     0.354850000000     0          
T        Si     0.387100000000     0.626300000000     0.418850000000     0          
T        Si     0.627233333333     0.540400000000     0.468950000000     0          
T        Si     0.576766666667     0.540366666667     0.406400000000     0          
T        Si     0.618033333333     0.564700000000     0.351200000000     0          
T        Si     0.571133333333     0.539966666667     0.291050000000     0          
T        Si     0.496066666667     0.540033333333     0.309400000000     0          
T        Si     0.422266666667     0.564033333333     0.278050000000     0          
T        Si     0.501566666667     0.563933333333     0.380100000000     0          
T        Si     0.368133333333     0.564300000000     0.460800000000     0          
O        O      0.659366666667     0.560000000000     0.454600000000     0          
O        O      0.592500000000     0.542066666667     0.443550000000     0          
O        O      0.538633333333     0.558766666667     0.401800000000     0          
O        O      0.602966666667     0.560833333333     0.385350000000     0          
O        O      0.636133333333     0.602633333333     0.348750000000     0          
O        O      0.646733333333     0.534533333333     0.347450000000     0          
O        O      0.586233333333     0.560900000000     0.322950000000     0          
O        O      0.584200000000     0.558800000000     0.260150000000     0          
O        O      0.528766666667     0.540200000000     0.288250000000     0          
O        O      0.507133333333     0.559900000000     0.342800000000     0          
O        O      0.463600000000     0.560433333333     0.289950000000     0          
O        O      0.408566666667     0.602233333333     0.287350000000     0          
O        O      0.400966666667     0.534466666667     0.295400000000     0          
O        O      0.386600000000     0.534500000000     0.441200000000     0          
O        O      0.474266666667     0.534466666667     0.389350000000     0          
O        O      0.485700000000     0.602066666667     0.386700000000     0          
O        O      0.422633333333     0.614033333333     0.404750000000     0          
O        O      0.434366666667     0.623266666667     0.344700000000     0          
O        O      0.366200000000     0.613533333333     0.331650000000     0          
O        O      0.354233333333     0.622533333333     0.391600000000     0          
O        O      0.379966666667     0.602300000000     0.449050000000     0          
O        O      0.380566666667     0.559700000000     0.498450000000     0          
T        Si     0.548900000000     0.626433333333     0.118550000000     0          
T        Si     0.598500000000     0.626433333333     0.182550000000     0          
T        Si     0.662200000000     0.626266666667     0.145150000000     0          
T        Si     0.612900000000     0.626300000000     0.081150000000     0          
T        Si     0.372766666667     0.540400000000     0.031050000000     0          
T        Si     0.423233333333     0.540366666667     0.093600000000     0          
T        Si     0.381966666667     0.564700000000     0.148800000000     0          
T        Si     0.428866666667     0.539966666667     0.208950000000     0          
T        Si     0.503933333333     0.540033333333     0.190600000000     0          
T        Si     0.577733333333     0.564033333333     0.221950000000     0          
T        Si     0.498433333333     0.563933333333     0.119900000000     0          
T        Si     0.631866666667     0.564300000000     0.039200000000     0          
O        O      0.340633333333     0.560000000000     0.045400000000     0          
O        O      0.407500000000     0.542066666667     0.056450000000     0          
O        O      0.461366666667     0.558766666667     0.098200000000     0          
O        O      0.397033333333     0.560833333333     0.114650000000     0          
O        O      0.363866666667     0.602633333333     0.151250000000     0          
O        O      0.353266666667     0.534533333333     0.152550000000     0          
O        O      0.413766666667     0.560900000000     0.177050000000     0          
O        O      0.415800000000     0.558800000000     0.239850000000     0          
O        O      0.471233333333     0.540200000000     0.211750000000     0          
O        O      0.492866666667     0.559900000000     0.157200000000     0          
O        O      0.536400000000     0.560433333333     0.210050000000     0          
O        O      0.591433333333     0.602233333333     0.212650000000     0          
O        O      0.599033333333     0.534466666667     0.204600000000     0          
O        O      0.613400000000     0.534500000000     0.058800000000     0          
O        O      0.525733333333     0.534466666667     0.110650000000     0          
O        O      0.514300000000     0.602066666667     0.113300000000     0          
O        O      0.577366666667     0.614033333333     0.095250000000     0          
O        O      0.565633333333     0.623266666667     0.155300000000     0          
O        O      0.633800000000     0.613533333333     0.168350000000     0          
O        O      0.645766666667     0.622533333333     0.108400000000     0          
O        O      0.620033333333     0.602300000000     0.050950000000     0          
O        O      0.619433333333     0.559700000000     0.001550000000     0          
T        Si     0.548900000000     0.373566666667     0.618550000000     0          
T        Si     0.598500000000     0.373566666667     0.682550000000     0          
T        Si     0.662200000000     0.373733333333     0.645150000000     0          
T        Si     0.612900000000     0.373700000000     0.581150000000     0          
T        Si     0.372766666667     0.459600000000     0.531050000000     0          
T        Si     0.423233333333     0.459633333333     0.593600000000     0          
T        Si     0.381966666667     0.435300000000     0.648800000000     0          
T        Si     0.428866666667     0.460033333333     0.708950000000     0          
T        Si     0.503933333333     0.459966666667     0.690600000000     0          
T        Si     0.577733333333     0.435966666667     0.721950000000     0          
T        Si     0.498433333333     0.436066666667     0.619900000000     0          
T        Si     0.631866666667     0.435700000000     0.539200000000     0          
T        Si     0.596666666667     0.500000000000     0.682300000000     0          
T        Si     0.663800000000     0.500000000000     0.642450000000     0          
T        Si     0.615800000000     0.500000000000     0.581000000000     0          
T        Si     0.548633333333     0.500000000000     0.620800000000     0          
O        O      0.340633333333     0.440000000000     0.545400000000     0          
O        O      0.362500000000     0.500000000000     0.523650000000     0          
O        O      0.407500000000     0.457933333333     0.556450000000     0          
O        O      0.426700000000     0.500000000000     0.604850000000     0          
O        O      0.461366666667     0.441233333333     0.598200000000     0          
O        O      0.397033333333     0.439166666667     0.614650000000     0          
O        O      0.363866666667     0.397366666667     0.651250000000     0          
O        O      0.353266666667     0.465466666667     0.652550000000     0          
O        O      0.413766666667     0.439100000000     0.677050000000     0          
O        O      0.415800000000     0.441200000000     0.739850000000     0          
O        O      0.415100000000     0.500000000000     0.706850000000     0          
O        O      0.471233333333     0.459800000000     0.711750000000     0          
O        O      0.492866666667     0.440100000000     0.657200000000     0          
O        O      0.514733333333     0.500000000000     0.684100000000     0          
O        O      0.536400000000     0.439566666667     0.710050000000     0          
O        O      0.591433333333     0.397766666667     0.712650000000     0          
O        O      0.599033333333     0.465533333333     0.704600000000     0          
O        O      0.560366666667     0.500000000000     0.658850000000     0          
O        O      0.629100000000     0.500000000000     0.660950000000     0          
O        O      0.652133333333     0.500000000000     0.604450000000     0          
O        O      0.613400000000     0.465500000000     0.558800000000     0          
O        O      0.583366666667     0.500000000000     0.602350000000     0          
O        O      0.525733333333     0.465533333333     0.610650000000     0          
O        O      0.514300000000     0.397933333333     0.613300000000     0          
O        O      0.538166666667     0.333333333333     0.610850000000     0          
O        O      0.577366666667     0.385966666667     0.595250000000     0          
O        O      0.565633333333     0.376733333333     0.655300000000     0          
O        O      0.603066666667     0.333333333333     0.693950000000     0          
O        O      0.633800000000     0.386466666667     0.668350000000     0          
O        O      0.645766666667     0.377466666667     0.608400000000     0          
O        O      0.609066666667     0.333333333333     0.569950000000     0          
O        O      0.620033333333     0.397700000000     0.550950000000     0          
O        O      0.619433333333     0.440300000000     0.501550000000     0          
O        O      0.338933333333     0.333333333333     0.652750000000     0          
T        Si     0.451100000000     0.373566666667     0.881450000000     0          
T        Si     0.401500000000     0.373566666667     0.817450000000     0          
T        Si     0.337800000000     0.373733333333     0.854850000000     0          
T        Si     0.387100000000     0.373700000000     0.918850000000     0          
T        Si     0.627233333333     0.459600000000     0.968950000000     0          
T        Si     0.576766666667     0.459633333333     0.906400000000     0          
T        Si     0.618033333333     0.435300000000     0.851200000000     0          
T        Si     0.571133333333     0.460033333333     0.791050000000     0          
T        Si     0.496066666667     0.459966666667     0.809400000000     0          
T        Si     0.422266666667     0.435966666667     0.778050000000     0          
T        Si     0.501566666667     0.436066666667     0.880100000000     0          
T        Si     0.368133333333     0.435700000000     0.960800000000     0          
T        Si     0.403333333333     0.500000000000     0.817700000000     0          
T        Si     0.336200000000     0.500000000000     0.857550000000     0          
T        Si     0.384200000000     0.500000000000     0.919000000000     0          
T        Si     0.451366666667     0.500000000000     0.879200000000     0          
O        O      0.659366666667     0.440000000000     0.954600000000     0          
O        O      0.637500000000     0.500000000000     0.976350000000     0          
O        O      0.592500000000     0.457933333333     0.943550000000     0          
O        O      0.573300000000     0.500000000000     0.895150000000     0          
O        O      0.538633333333     0.441233333333     0.901800000000     0          
O        O      0.602966666667     0.439166666667     0.885350000000     0          
O        O      0.636133333333     0.397366666667     0.848750000000     0          
O        O      0.646733333333     0.465466666667     0.847450000000     0          
O        O      0.586233333333     0.439100000000     0.822950000000     0          
O        O      0.584200000000     0.441200000000     0.760150000000     0          
O        O      0.584900000000     0.500000000000     0.793150000000     0          
O        O      0.528766666667     0.459800000000     0.788250000000     0          
O        O      0.507133333333     0.440100000000     0.842800000000     0          
O        O      0.485266666667     0.500000000000     0.815900000000     0          
O        O      0.463600000000     0.439566666667     0.789950000000     0          
O        O      0.408566666667     0.397766666667     0.787350000000     0          
O        O      0.400966666667     0.465533333333     0.795400000000     0          
O        O      0.439633333333     0.500000000000     0.841150000000     0          
O        O      0.370900000000     0.500000000000     0.839050000000     0          
O        O      0.347866666667     0.500000000000     0.895550000000     0          
O        O      0.386600000000     0.465500000000     0.941200000000     0          
O        O      0.416633333333     0.500000000000     0.897650000000     0          
O        O      0.474266666667     0.465533333333     0.889350000000     0          
O        O      0.485700000000     0.397933333333     0.886700000000     0          
O        O      0.461833333333     0.333333333333     0.889150000000     0          
O        O      0.422633333333     0.385966666667     0.904750000000     0          
O        O      0.434366666667     0.376733333333     0.844700000000     0          
O        O      0.396933333333     0.333333333333     0.806050000000     0          
O        O      0.366200000000     0.386466666667     0.831650000000     0          
O        O      0.354233333333     0.377466666667     0.891600000000     0          
O        O      0.390933333333     0.333333333333     0.930050000000     0          
O        O      0.379966666667     0.397700000000     0.949050000000     0          
O        O      0.380566666667     0.440300000000     0.998450000000     0          
O        O      0.661066666667     0.333333333333     0.847250000000     0          
T        Si     0.451100000000     0.626433333333     0.881450000000     0          
T        Si     0.401500000000     0.626433333333     0.817450000000     0          
T        Si     0.337800000000     0.626266666667     0.854850000000     0          
T        Si     0.387100000000     0.626300000000     0.918850000000     0          
T        Si     0.627233333333     0.540400000000     0.968950000000     0          
T        Si     0.576766666667     0.540366666667     0.906400000000     0          
T        Si     0.618033333333     0.564700000000     0.851200000000     0          
T        Si     0.571133333333     0.539966666667     0.791050000000     0          
T        Si     0.496066666667     0.540033333333     0.809400000000     0          
T        Si     0.422266666667     0.564033333333     0.778050000000     0          
T        Si     0.501566666667     0.563933333333     0.880100000000     0          
T        Si     0.368133333333     0.564300000000     0.960800000000     0          
O        O      0.659366666667     0.560000000000     0.954600000000     0          
O        O      0.592500000000     0.542066666667     0.943550000000     0          
O        O      0.538633333333     0.558766666667     0.901800000000     0          
O        O      0.602966666667     0.560833333333     0.885350000000     0          
O        O      0.636133333333     0.602633333333     0.848750000000     0          
O        O      0.646733333333     0.534533333333     0.847450000000     0          
O        O      0.586233333333     0.560900000000     0.822950000000     0          
O        O      0.584200000000     0.558800000000     0.760150000000     0          
O        O      0.528766666667     0.540200000000     0.788250000000     0          
O        O      0.507133333333     0.559900000000     0.842800000000     0          
O        O      0.463600000000     0.560433333333     0.789950000000     0          
O        O      0.408566666667     0.602233333333     0.787350000000     0          
O        O      0.400966666667     0.534466666667     0.795400000000     0          
O        O      0.386600000000     0.534500000000     0.941200000000     0          
O        O      0.474266666667     0.534466666667     0.889350000000     0          
O        O      0.485700000000     0.602066666667     0.886700000000     0          
O        O      0.422633333333     0.614033333333     0.904750000000     0          
O        O      0.434366666667     0.623266666667     0.844700000000     0          
O        O      0.366200000000     0.613533333333     0.831650000000     0          
O        O      0.354233333333     0.622533333333     0.891600000000     0          
O        O      0.379966666667     0.602300000000     0.949050000000     0          
O        O      0.380566666667     0.559700000000     0.998450000000     0          
T        Si     0.548900000000     0.626433333333     0.618550000000     0          
T        Si     0.598500000000     0.626433333333     0.682550000000     0          
T        Si     0.662200000000     0.626266666667     0.645150000000     0          
T        Si     0.612900000000     0.626300000000     0.581150000000     0          
T        Si     0.372766666667     0.540400000000     0.531050000000     0          
T        Si     0.423233333333     0.540366666667     0.593600000000     0          
T        Si     0.381966666667     0.564700000000     0.648800000000     0          
T        Si     0.428866666667     0.539966666667     0.708950000000     0          
T        Si     0.503933333333     0.540033333333     0.690600000000     0          
T        Si     0.577733333333     0.564033333333     0.721950000000     0          
T        Si     0.498433333333     0.563933333333     0.619900000000     0          
T        Si     0.631866666667     0.564300000000     0.539200000000     0          
O        O      0.340633333333     0.560000000000     0.545400000000     0          
O        O      0.407500000000     0.542066666667     0.556450000000     0          
O        O      0.461366666667     0.558766666667     0.598200000000     0          
O        O      0.397033333333     0.560833333333     0.614650000000     0          
O        O      0.363866666667     0.602633333333     0.651250000000     0          
O        O      0.353266666667     0.534533333333     0.652550000000     0          
O        O      0.413766666667     0.560900000000     0.677050000000     0          
O        O      0.415800000000     0.558800000000     0.739850000000     0          
O        O      0.471233333333     0.540200000000     0.711750000000     0          
O        O      0.492866666667     0.559900000000     0.657200000000     0          
O        O      0.536400000000     0.560433333333     0.710050000000     0          
O        O      0.591433333333     0.602233333333     0.712650000000     0          
O        O      0.599033333333     0.534466666667     0.704600000000     0          
O        O      0.613400000000     0.534500000000     0.558800000000     0          
O        O      0.525733333333     0.534466666667     0.610650000000     0          
O        O      0.514300000000     0.602066666667     0.613300000000     0          
O        O      0.577366666667     0.614033333333     0.595250000000     0          
O        O      0.565633333333     0.623266666667     0.655300000000     0          
O        O      0.633800000000     0.613533333333     0.668350000000     0          
O        O      0.645766666667     0.622533333333     0.608400000000     0          
O        O      0.620033333333     0.602300000000     0.550950000000     0          
O        O      0.619433333333     0.559700000000     0.501550000000     0          
T        Si     0.548900000000     0.706900000000     0.118550000000     0          
T        Si     0.598500000000     0.706900000000     0.182550000000     0          
T        Si     0.662200000000     0.707066666667     0.145150000000     0          
T        Si     0.612900000000     0.707033333333     0.081150000000     0          
T        Si     0.372766666667     0.792933333333     0.031050000000     0          
T        Si     0.423233333333     0.792966666667     0.093600000000     0          
T        Si     0.381966666667     0.768633333333     0.148800000000     0          
T        Si     0.428866666667     0.793366666667     0.208950000000     0          
T        Si     0.503933333333     0.793300000000     0.190600000000     0          
T        Si     0.577733333333     0.769300000000     0.221950000000     0          
T        Si     0.498433333333     0.769400000000     0.119900000000     0          
T        Si     0.631866666667     0.769033333333     0.039200000000     0          
T        Si     0.596666666667     0.833333333333     0.182300000000     0          
T        Si     0.663800000000     0.833333333333     0.142450000000     0          
T        Si     0.615800000000     0.833333333333     0.081000000000     0          
T        Si     0.548633333333     0.833333333333     0.120800000000     0          
O        O      0.340633333333     0.773333333333     0.045400000000     0          
O        O      0.362500000000     0.833333333333     0.023650000000     0          
O        O      0.407500000000     0.791266666667     0.056450000000     0          
O        O      0.426700000000     0.833333333333     0.104850000000     0          
O        O      0.461366666667     0.774566666667     0.098200000000     0          
O        O      0.397033333333     0.772500000000     0.114650000000     0          
O        O      0.363866666667     0.730700000000     0.151250000000     0          
O        O      0.353266666667     0.798800000000     0.152550000000     0          
O        O      0.413766666667     0.772433333333     0.177050000000     0          
O        O      0.415800000000     0.774533333333     0.239850000000     0          
O        O      0.415100000000     0.833333333333     0.206850000000     0          
O        O      0.471233333333     0.793133333333     0.211750000000     0          
O        O      0.492866666667     0.773433333333     0.157200000000     0          
O        O      0.514733333333     0.833333333333     0.184100000000     0          
O        O      0.536400000000     0.772900000000     0.210050000000     0          
O        O      0.591433333333     0.731100000000     0.212650000000     0          
O        O      0.599033333333     0.798866666667     0.204600000000     0          
O        O      0.560366666667     0.833333333333     0.158850000000     0          
O        O      0.629100000000     0.833333333333     0.160950000000     0          
O        O      0.652133333333     0.833333333333     0.104450000000     0          
O        O      0.613400000000     0.798833333333     0.058800000000     0          
O        O      0.583366666667     0.833333333333     0.102350000000     0          
O        O      0.525733333333     0.798866666667     0.110650000000     0          
O        O      0.514300000000     0.731266666667     0.113300000000     0          
O        O      0.538166666667     0.666666666667     0.110850000000     0          
O        O      0.577366666667     0.719300000000     0.095250000000     0          
O        O      0.565633333333     0.710066666667     0.155300000000     0          
O        O      0.603066666667     0.666666666667     0.193950000000     0          
O        O      0.633800000000     0.719800000000     0.168350000000     0          
O        O      0.645766666667     0.710800000000     0.108400000000     0          
O        O      0.609066666667     0.666666666667     0.069950000000     0          
O        O      0.620033333333     0.731033333333     0.050950000000     0          
O        O      0.619433333333     0.773633333333     0.001550000000     0          
O        O      0.338933333333     0.666666666667     0.152750000000     0          
T        Si     0.451100000000     0.706900000000     0.381450000000     0          
T        Si     0.401500000000     0.706900000000     0.317450000000     0          
T        Si     0.337800000000     0.707066666667     0.354850000000     0          
T        Si     0.387100000000     0.707033333333     0.418850000000     0          
T        Si     0.627233333333     0.792933333333     0.468950000000     0          
T        Si     0.576766666667     0.792966666667     0.406400000000     0          
T        Si     0.618033333333     0.768633333333     0.351200000000     0          
T        Si     0.571133333333     0.793366666667     0.291050000000     0          
T        Si     0.496066666667     0.793300000000     0.309400000000     0          
T        Si     0.422266666667     0.769300000000     0.278050000000     0          
T        Si     0.501566666667     0.769400000000     0.380100000000     0          
T        Si     0.368133333333     0.769033333333     0.460800000000     0          
T        Si     0.403333333333     0.833333333333     0.317700000000     0          
T        Si     0.336200000000     0.833333333333     0.357550000000     0          
T        Si     0.384200000000     0.833333333333     0.419000000000     0          
T        Si     0.451366666667     0.833333333333     0.379200000000     0          
O        O      0.659366666667     0.773333333333     0.454600000000     0          
O        O      0.637500000000     0.833333333333     0.476350000000     0          
O        O      0.592500000000     0.791266666667     0.443550000000     0          
O        O      0.573300000000     0.833333333333     0.395150000000     0          
O        O      0.538633333333     0.774566666667     0.401800000000     0          
O        O      0.602966666667     0.772500000000     0.385350000000     0          
O        O      0.636133333333     0.730700000000     0.348750000000     0          
O        O      0.646733333333     0.798800000000     0.347450000000     0          
O        O      0.586233333333     0.772433333333     0.322950000000     0          
O        O      0.584200000000     0.774533333333     0.260150000000     0          
O        O      0.584900000000     0.833333333333     0.293150000000     0          
O        O      0.528766666667     0.793133333333     0.288250000000     0          
O        O      0.507133333333     0.773433333333     0.342800000000     0          
O        O      0.485266666667     0.833333333333     0.315900000000     0          
O        O      0.463600000000     0.772900000000     0.289950000000     0          
O        O      0.408566666667     0.731100000000     0.287350000000     0          
O        O      0.400966666667     0.798866666667     0.295400000000     0          
O        O      0.439633333333     0.833333333333     0.341150000000     0          
O        O      0.370900000000     0.833333333333     0.339050000000     0          
O        O      0.347866666667     0.833333333333     0.395550000000     0          
O        O      0.386600000000     0.798833333333     0.441200000000     0          
O        O      0.416633333333     0.833333333333     0.397650000000     0          
O        O      0.474266666667     0.798866666667     0.389350000000     0          
O        O      0.485700000000     0.731266666667     0.386700000000     0          
O        O      0.461833333333     0.666666666667     0.389150000000     0          
O        O      0.422633333333     0.719300000000     0.404750000000     0          
O        O      0.434366666667     0.710066666667     0.344700000000     0          
O        O      0.396933333333     0.666666666667     0.306050000000     0          
O        O      0.366200000000     0.719800000000     0.331650000000     0          
O        O      0.354233333333     0.710800000000     0.391600000000     0          
O        O      0.390933333333     0.666666666667     0.430050000000     0          
O        O      0.379966666667     0.731033333333     0.449050000000     0          
O        O      0.380566666667     0.773633333333     0.498450000000     0          
O        O      0.661066666667     0.666666666667     0.347250000000     0          
T        Si     0.451100000000     0.959766666667     0.381450000000     0          
T        Si     0.401500000000     0.959766666667     0.317450000000     0          
T        Si     0.337800000000     0.959600000000     0.354850000000     0          
T        Si     0.387100000000     0.959633333333     0.418850000000     0          
T        Si     0.627233333333     0.873733333333     0.468950000000     0          
T        Si     0.576766666667     0.873700000000     0.406400000000     0          
T        Si     0.618033333333     0.898033333333     0.351200000000     0          
T        Si     0.571133333333     0.873300000000     0.291050000000     0          
T        Si     0.496066666667     0.873366666667     0.309400000000     0          
T        Si     0.422266666667     0.897366666667     0.278050000000     0          
T        Si     0.501566666667     0.897266666667     0.380100000000     0          
T        Si     0.368133333333     0.897633333333     0.460800000000     0          
O        O      0.659366666667     0.893333333333     0.454600000000     0          
O        O      0.592500000000     0.875400000000     0.443550000000     0          
O        O      0.538633333333     0.892100000000     0.401800000000     0          
O        O      0.602966666667     0.894166666667     0.385350000000     0          
O        O      0.636133333333     0.935966666667     0.348750000000     0          
O        O      0.646733333333     0.867866666667     0.347450000000     0          
O        O      0.586233333333     0.894233333333     0.322950000000     0          
O        O      0.584200000000     0.892133333333     0.260150000000     0          
O        O      0.528766666667     0.873533333333     0.288250000000     0          
O        O      0.507133333333     0.893233333333     0.342800000000     0          
O        O      0.463600000000     0.893766666667     0.289950000000     0          
O        O      0.408566666667     0.935566666667     0.287350000000     0          
O        O      0.400966666667     0.867800000000     0.295400000000     0          
O        O      0.386600000000     0.867833333333     0.441200000000     0          
O        O      0.474266666667     0.867800000000     0.389350000000     0          
O        O      0.485700000000     0.935400000000     0.386700000000     0          
O        O      0.422633333333     0.947366666667     0.404750000000     0          
O        O      0.434366666667     0.956600000000     0.344700000000     0          
O        O      0.366200000000     0.946866666667     0.331650000000     0          
O        O      0.354233333333     0.955866666667     0.391600000000     0          
O        O      0.379966666667     0.935633333333     0.449050000000     0          
O        O      0.380566666667     0.893033333333     0.498450000000     0          
T        Si     0.548900000000     0.959766666667     0.118550000000     0          
T        Si     0.598500000000     0.959766666667     0.182550000000     0          
T        Si     0.662200000000     0.959600000000     0.145150000000     0          
T        Si     0.612900000000     0.959633333333     0.081150000000     0          
T        Si     0.372766666667     0.873733333333     0.031050000000     0          
T        Si     0.423233333333     0.873700000000     0.093600000000     0          
T        Si     0.381966666667     0.898033333333     0.148800000000     0          
T        Si     0.428866666667     0.873300000000     0.208950000000     0          
T        Si     0.503933333333     0.873366666667     0.190600000000     0          
T        Si     0.577733333333     0.897366666667     0.221950000000     0          
T        Si     0.498433333333     0.897266666667     0.119900000000     0          
T        Si     0.631866666667     0.897633333333     0.039200000000     0          
O        O      0.340633333333     0.893333333333     0.045400000000     0          
O        O      0.407500000000     0.875400000000     0.056450000000     0          
O        O      0.461366666667     0.892100000000     0.098200000000     0          
O        O      0.397033333333     0.894166666667     0.114650000000     0          
O        O      0.363866666667     0.935966666667     0.151250000000     0          
O        O      0.353266666667     0.867866666667     0.152550000000     0          
O        O      0.413766666667     0.894233333333     0.177050000000     0          
O        O      0.415800000000     0.892133333333     0.239850000000     0          
O        O      0.471233333333     0.873533333333     0.211750000000     0          
O        O      0.492866666667     0.893233333333     0.157200000000     0          
O        O      0.536400000000     0.893766666667     0.210050000000     0          
O        O      0.591433333333     0.935566666667     0.212650000000     0          
O        O      0.599033333333     0.867800000000     0.204600000000     0          
O        O      0.613400000000     0.867833333333     0.058800000000     0          
O        O      0.525733333333     0.867800000000     0.110650000000     0          
O        O      0.514300000000     0.935400000000     0.113300000000     0          
O        O      0.577366666667     0.947366666667     0.095250000000     0          
O        O      0.565633333333     0.956600000000     0.155300000000     0          
O        O      0.633800000000     0.946866666667     0.168350000000     0          
O        O      0.645766666667     0.955866666667     0.108400000000     0          
O        O      0.620033333333     0.935633333333     0.050950000000     0          
O        O      0.619433333333     0.893033333333     0.001550000000     0          
T        Si     0.548900000000     0.706900000000     0.618550000000     0          
T        Si     0.598500000000     0.706900000000     0.682550000000     0          
T        Si     0.662200000000     0.707066666667     0.645150000000     0          
T        Si     0.612900000000     0.707033333333     0.581150000000     0          
T        Si     0.372766666667     0.792933333333     0.531050000000     0          
T        Si     0.423233333333     0.792966666667     0.593600000000     0          
T        Si     0.381966666667     0.768633333333     0.648800000000     0          
T        Si     0.428866666667     0.793366666667     0.708950000000     0          
T        Si     0.503933333333     0.793300000000     0.690600000000     0          
T        Si     0.577733333333     0.769300000000     0.721950000000     0          
T        Si     0.498433333333     0.769400000000     0.619900000000     0          
T        Si     0.631866666667     0.769033333333     0.539200000000     0          
T        Si     0.596666666667     0.833333333333     0.682300000000     0          
T        Si     0.663800000000     0.833333333333     0.642450000000     0          
T        Si     0.615800000000     0.833333333333     0.581000000000     0          
T        Si     0.548633333333     0.833333333333     0.620800000000     0          
O        O      0.340633333333     0.773333333333     0.545400000000     0          
O        O      0.362500000000     0.833333333333     0.523650000000     0          
O        O      0.407500000000     0.791266666667     0.556450000000     0          
O        O      0.426700000000     0.833333333333     0.604850000000     0          
O        O      0.461366666667     0.774566666667     0.598200000000     0          
O        O      0.397033333333     0.772500000000     0.614650000000     0          
O        O      0.363866666667     0.730700000000     0.651250000000     0          
O        O      0.353266666667     0.798800000000     0.652550000000     0          
O        O      0.413766666667     0.772433333333     0.677050000000     0          
O        O      0.415800000000     0.774533333333     0.739850000000     0          
O        O      0.415100000000     0.833333333333     0.706850000000     0          
O        O      0.471233333333     0.793133333333     0.711750000000     0          
O        O      0.492866666667     0.773433333333     0.657200000000     0          
O        O      0.514733333333     0.833333333333     0.684100000000     0          
O        O      0.536400000000     0.772900000000     0.710050000000     0          
O        O      0.591433333333     0.731100000000     0.712650000000     0          
O        O      0.599033333333     0.798866666667     0.704600000000     0          
O        O      0.560366666667     0.833333333333     0.658850000000     0          
O        O      0.629100000000     0.833333333333     0.660950000000     0          
O        O      0.652133333333     0.833333333333     0.604450000000     0          
O        O      0.613400000000     0.798833333333     0.558800000000     0          
O        O      0.583366666667     0.833333333333     0.602350000000     0          
O        O      0.525733333333     0.798866666667     0.610650000000     0          
O        O      0.514300000000     0.731266666667     0.613300000000     0          
O        O      0.538166666667     0.666666666667     0.610850000000     0          
O        O      0.577366666667     0.719300000000     0.595250000000     0          
O        O      0.565633333333     0.710066666667     0.655300000000     0          
O        O      0.603066666667     0.666666666667     0.693950000000     0          
O        O      0.633800000000     0.719800000000     0.668350000000     0          
O        O      0.645766666667     0.710800000000     0.608400000000     0          
O        O      0.609066666667     0.666666666667     0.569950000000     0          
O        O      0.620033333333     0.731033333333     0.550950000000     0          
O        O      0.619433333333     0.773633333333     0.501550000000     0          
O        O      0.338933333333     0.666666666667     0.652750000000     0          
T        Si     0.451100000000     0.706900000000     0.881450000000     0          
T        Si     0.401500000000     0.706900000000     0.817450000000     0          
T        Si     0.337800000000     0.707066666667     0.854850000000     0          
T        Si     0.387100000000     0.707033333333     0.918850000000     0          
T        Si     0.627233333333     0.792933333333     0.968950000000     0          
T        Si     0.576766666667     0.792966666667     0.906400000000     0          
T        Si     0.618033333333     0.768633333333     0.851200000000     0          
T        Si     0.571133333333     0.793366666667     0.791050000000     0          
T        Si     0.496066666667     0.793300000000     0.809400000000     0          
T        Si     0.422266666667     0.769300000000     0.778050000000     0          
T        Si     0.501566666667     0.769400000000     0.880100000000     0          
T        Si     0.368133333333     0.769033333333     0.960800000000     0          
T        Si     0.403333333333     0.833333333333     0.817700000000     0          
T        Si     0.336200000000     0.833333333333     0.857550000000     0          
T        Si     0.384200000000     0.833333333333     0.919000000000     0          
T        Si     0.451366666667     0.833333333333     0.879200000000     0          
O        O      0.659366666667     0.773333333333     0.954600000000     0          
O        O      0.637500000000     0.833333333333     0.976350000000     0          
O        O      0.592500000000     0.791266666667     0.943550000000     0          
O        O      0.573300000000     0.833333333333     0.895150000000     0          
O        O      0.538633333333     0.774566666667     0.901800000000     0          
O        O      0.602966666667     0.772500000000     0.885350000000     0          
O        O      0.636133333333     0.730700000000     0.848750000000     0          
O        O      0.646733333333     0.798800000000     0.847450000000     0          
O        O      0.586233333333     0.772433333333     0.822950000000     0          
O        O      0.584200000000     0.774533333333     0.760150000000     0          
O        O      0.584900000000     0.833333333333     0.793150000000     0          
O        O      0.528766666667     0.793133333333     0.788250000000     0          
O        O      0.507133333333     0.773433333333     0.842800000000     0          
O        O      0.485266666667     0.833333333333     0.815900000000     0          
O        O      0.463600000000     0.772900000000     0.789950000000     0          
O        O      0.408566666667     0.731100000000     0.787350000000     0          
O        O      0.400966666667     0.798866666667     0.795400000000     0          
O        O      0.439633333333     0.833333333333     0.841150000000     0          
O        O      0.370900000000     0.833333333333     0.839050000000     0          
O        O      0.347866666667     0.833333333333     0.895550000000     0          
O        O      0.386600000000     0.798833333333     0.941200000000     0          
O        O      0.416633333333     0.833333333333     0.897650000000     0          
O        O      0.474266666667     0.798866666667     0.889350000000     0          
O        O      0.485700000000     0.731266666667     0.886700000000     0          
O        O      0.461833333333     0.666666666667     0.889150000000     0          
O        O      0.422633333333     0.719300000000     0.904750000000     0          
O        O      0.434366666667     0.710066666667     0.844700000000     0          
O        O      0.396933333333     0.666666666667     0.806050000000     0          
O        O      0.366200000000     0.719800000000     0.831650000000     0          
O        O      0.354233333333     0.710800000000     0.891600000000     0          
O        O      0.390933333333     0.666666666667     0.930050000000     0          
O        O      0.379966666667     0.731033333333     0.949050000000     0          
O        O      0.380566666667     0.773633333333     0.998450000000     0          
O        O      0.661066666667     0.666666666667     0.847250000000     0          
T        Si     0.451100000000     0.959766666667     0.881450000000     0          
T        Si     0.401500000000     0.959766666667     0.817450000000     0          
T        Si     0.337800000000     0.959600000000     0.854850000000     0          
T        Si     0.387100000000     0.959633333333     0.918850000000     0          
T        Si     0.627233333333     0.873733333333     0.968950000000     0          
T        Si     0.576766666667     0.873700000000     0.906400000000     0          
T        Si     0.618033333333     0.898033333333     0.851200000000     0          
T        Si     0.571133333333     0.873300000000     0.791050000000     0          
T        Si     0.496066666667     0.873366666667     0.809400000000     0          
T        Si     0.422266666667     0.897366666667     0.778050000000     0          
T        Si     0.501566666667     0.897266666667     0.880100000000     0          
T        Si     0.368133333333     0.897633333333     0.960800000000     0          
O        O      0.659366666667     0.893333333333     0.954600000000     0          
O        O      0.592500000000     0.875400000000     0.943550000000     0          
O        O      0.538633333333     0.892100000000     0.901800000000     0          
O        O      0.602966666667     0.894166666667     0.885350000000     0          
O        O      0.636133333333     0.935966666667     0.848750000000     0          
O        O      0.646733333333     0.867866666667     0.847450000000     0          
O        O      0.586233333333     0.894233333333     0.822950000000     0          
O        O      0.584200000000     0.892133333333     0.760150000000     0          
O        O      0.528766666667     0.873533333333     0.788250000000     0          
O        O      0.507133333333     0.893233333333     0.842800000000     0          
O        O      0.463600000000     0.893766666667     0.789950000000     0          
O        O      0.408566666667     0.935566666667     0.787350000000     0          
O        O      0.400966666667     0.867800000000     0.795400000000     0          
O        O      0.386600000000     0.867833333333     0.941200000000     0          
O        O      0.474266666667     0.867800000000     0.889350000000     0          
O        O      0.485700000000     0.935400000000     0.886700000000     0          
O        O      0.422633333333     0.947366666667     0.904750000000     0          
O        O      0.434366666667     0.956600000000     0.844700000000     0          
O        O      0.366200000000     0.946866666667     0.831650000000     0          
O        O      0.354233333333     0.955866666667     0.891600000000     0          
O        O      0.379966666667     0.935633333333     0.949050000000     0          
O        O      0.380566666667     0.893033333333     0.998450000000     0          
T        Si     0.548900000000     0.959766666667     0.618550000000     0          
T        Si     0.598500000000     0.959766666667     0.682550000000     0          
T        Si     0.662200000000     0.959600000000     0.645150000000     0          
T        Si     0.612900000000     0.959633333333     0.581150000000     0          
T        Si     0.372766666667     0.873733333333     0.531050000000     0          
T        Si     0.423233333333     0.873700000000     0.593600000000     0          
T        Si     0.381966666667     0.898033333333     0.648800000000     0          
T        Si     0.428866666667     0.873300000000     0.708950000000     0          
T        Si     0.503933333333     0.873366666667     0.690600000000     0          
T        Si     0.577733333333     0.897366666667     0.721950000000     0          
T        Si     0.498433333333     0.897266666667     0.619900000000     0          
T        Si     0.631866666667     0.897633333333     0.539200000000     0          
O        O      0.340633333333     0.893333333333     0.545400000000     0          
O        O      0.407500000000     0.875400000000     0.556450000000     0          
O        O      0.461366666667     0.892100000000     0.598200000000     0          
O        O      0.397033333333     0.894166666667     0.614650000000     0          
O        O      0.363866666667     0.935966666667     0.651250000000     0          
O        O      0.353266666667     0.867866666667     0.652550000000     0          
O        O      0.413766666667     0.894233333333     0.677050000000     0          
O        O      0.415800000000     0.892133333333     0.739850000000     0          
O        O      0.471233333333     0.873533333333     0.711750000000     0          
O        O      0.492866666667     0.893233333333     0.657200000000     0          
O        O      0.536400000000     0.893766666667     0.710050000000     0          
O        O      0.591433333333     0.935566666667     0.712650000000     0          
O        O      0.599033333333     0.867800000000     0.704600000000     0          
O        O      0.613400000000     0.867833333333     0.558800000000     0          
O        O      0.525733333333     0.867800000000     0.610650000000     0          
O        O      0.514300000000     0.935400000000     0.613300000000     0          
O        O      0.577366666667     0.947366666667     0.595250000000     0          
O        O      0.565633333333     0.956600000000     0.655300000000     0          
O        O      0.633800000000     0.946866666667     0.668350000000     0          
O        O      0.645766666667     0.955866666667     0.608400000000     0          
O        O      0.620033333333     0.935633333333     0.550950000000     0          
O        O      0.619433333333     0.893033333333     0.501550000000     0          
T        Si     0.882233333333     0.040233333333     0.118550000000     0          
T        Si     0.931833333333     0.040233333333     0.182550000000     0          
T        Si     0.995533333333     0.040400000000     0.145150000000     0          
T        Si     0.946233333333     0.040366666667     0.081150000000     0          
T        Si     0.706100000000     0.126266666667     0.031050000000     0          
T        Si     0.756566666667     0.126300000000     0.093600000000     0          
T        Si     0.715300000000     0.101966666667     0.148800000000     0          
T        Si     0.762200000000     0.126700000000     0.208950000000     0          
T        Si     0.837266666667     0.126633333333     0.190600000000     0          
T        Si     0.911066666667     0.102633333333     0.221950000000     0          
T        Si     0.831766666667     0.102733333333     0.119900000000     0          
T        Si     0.965200000000     0.102366666667     0.039200000000     0          
T        Si     0.930000000000     0.166666666667     0.182300000000     0          
T        Si     0.997133333333     0.166666666667     0.142450000000     0          
T        Si     0.949133333333     0.166666666667     0.081000000000     0          
T        Si     0.881966666667     0.166666666667     0.120800000000     0          
O        O      0.673966666667     0.106666666667     0.045400000000     0          
O        O      0.695833333333     0.166666666667     0.023650000000     0          
O        O      0.740833333333     0.124600000000     0.056450000000     0          
O        O      0.760033333333     0.166666666667     0.104850000000     0          
O        O      0.794700000000     0.107900000000     0.098200000000     0          
O        O      0.730366666667     0.105833333333     0.114650000000     0          
O        O      0.697200000000     0.064033333333     0.151250000000     0          
O        O      0.686600000000     0.132133333333     0.152550000000     0          
O        O      0.747100000000     0.105766666667     0.177050000000     0          
O        O      0.749133333333     0.107866666667     0.239850000000     0          
O        O      0.748433333333     0.166666666667     0.206850000000     0          
O        O      0.804566666667     0.126466666667     0.211750000000     0          
O        O      0.826200000000     0.106766666667     0.157200000000     0          
O        O      0.848066666667     0.166666666667     0.184100000000     0          
O        O      0.869733333333     0.106233333333     0.210050000000     0          
O        O      0.924766666667     0.064433333333     0.212650000000     0          
O        O      0.932366666667     0.132200000000     0.204600000000     0          
O        O      0.893700000000     0.166666666667     0.158850000000     0          
O        O      0.962433333333     0.166666666667     0.160950000000     0          
O        O      0.985466666667     0.166666666667     0.104450000000     0          
O        O      0.946733333333     0.132166666667     0.058800000000     0          
O        O      0.916700000000     0.166666666667     0.102350000000     0          
O        O      0.859066666667     0.132200000000     0.110650000000     0          
O        O      0.847633333333     0.064600000000     0.113300000000     0          
O        O      0.871500000000     0.000000000000     0.110850000000     0          
O        O      0.910700000000     0.052633333333     0.095250000000     0          
O        O      0.898966666667     0.043400000000     0.155300000000     0          
O        O      0.936400000000     0.000000000000     0.193950000000     0          
O        O      0.967133333333     0.053133333333     0.168350000000     0          
O        O      0.979100000000     0.044133333333     0.108400000000     0          
O        O      0.942400000000     0.000000000000     0.069950000000     0          
O        O      0.953366666667     0.064366666667     0.050950000000     0          
O        O      0.952766666667     0.106966666667     0.001550000000     0          
O        O      0.672266666667     0.000000000000     0.152750000000     0          
T        Si     0.784433333333     0.040233333333     0.381450000000     0          
T        Si     0.734833333333     0.040233333333     0.317450000000     0          
T        Si     0.671133333333     0.040400000000     0.354850000000     0          
T        Si     0.720433333333     0.040366666667     0.418850000000     0          
T        Si     0.960566666667     0.126266666667     0.468950000000     0          
T        Si     0.910100000000     0.126300000000     0.406400000000     0          
T        Si     0.951366666667     0.101966666667     0.351200000000     0          
T        Si     0.904466666667     0.126700000000     0.291050000000     0          
T        Si     0.829400000000     0.126633333333     0.309400000000     0          
T        Si     0.755600000000     0.102633333333     0.278050000000     0          
T        Si     0.834900000000     0.102733333333     0.380100000000     0          
T        Si     0.701466666667     0.102366666667     0.460800000000     0          
T        Si     0.736666666667     0.166666666667     0.317700000000     0          
T        Si     0.669533333333     0.166666666667     0.357550000000     0          
T        Si     0.717533333333     0.166666666667     0.419000000000     0          
T        Si     0.784700000000     0.166666666667     0.379200000000     0          
O        O      0.992700000000     0.106666666667     0.454600000000     0          
O        O      0.970833333333     0.166666666667     0.476350000000     0          
O        O      0.925833333333     0.124600000000     0.443550000000     0          
O        O      0.906633333333     0.166666666667     0.395150000000     0          
O        O      0.871966666667     0.107900000000     0.401800000000     0          
O        O      0.936300000000     0.105833333333     0.385350000000     0          
O        O      0.969466666667     0.064033333333     0.348750000000     0          
O        O      0.980066666667     0.132133333333     0.347450000000     0          
O        O      0.919566666667     0.105766666667     0.322950000000     0          
O        O      0.917533333333     0.107866666667     0.260150000000     0          
O        O      0.918233333333     0.166666666667     0.293150000000     0          
O        O      0.862100000000     0.126466666667     0.288250000000     0          
O        O      0.840466666667     0.106766666667     0.342800000000     0          
O        O      0.818600000000     0.166666666667     0.315900000000     0          
O        O      0.796933333333     0.106233333333     0.289950000000     0          
O        O      0.741900000000     0.064433333333     0.287350000000     0          
O        O      0.734300000000     0.132200000000     0.295400000000     0          
O        O      0.772966666667     0.166666666667     0.341150000000     0          
O        O      0.704233333333     0.166666666667     0.339050000000     0          
O        O      0.681200000000     0.166666666667     0.395550000000     0          
O        O      0.719933333333     0.132166666667     0.441200000000     0          
O        O      0.749966666667     0.166666666667     0.397650000000     0          
O        O      0.807600000000     0.132200000000     0.389350000000     0          
O        O      0.819033333333     0.064600000000     0.386700000000     0          
O        O      0.795166666667     0.000000000000     0.389150000000     0          
O        O      0.755966666667     0.052633333333     0.404750000000     0          
O        O      0.767700000000     0.043400000000     0.344700000000     0          
O        O      0.730266666667     0.000000000000     0.306050000000     0          
O        O      0.699533333333     0.053133333333     0.331650000000     0          
O        O      0.687566666667     0.044133333333     0.391600000000     0          
O        O      0.724266666667     0.000000000000     0.430050000000     0          
O        O      0.713300000000     0.064366666667     0.449050000000     0          
O        O      0.713900000000     0.106966666667     0.498450000000     0          
O        O      0.994400000000     0.000000000000     0.347250000000     0          
T        Si     0.784433333333     0.293100000000     0.381450000000     0          
T        Si     0.734833333333     0.293100000000     0.317450000000     0          
T        Si     0.671133333333     0.292933333333     0.354850000000     0          
T        Si     0.720433333333     0.292966666667     0.418850000000     0          
T        Si     0.960566666667     0.207066666667     0.468950000000     0          
T        Si     0.910100000000     0.207033333333     0.406400000000     0          
T        Si     0.951366666667     0.231366666667     0.351200000000     0          
T        Si     0.904466666667     0.206633333333     0.291050000000     0          
T        Si     0.829400000000     0.206700000000     0.309400000000     0          
T        Si     0.755600000000     0.230700000000     0.278050000000     0          
T        Si     0.834900000000     0.230600000000     0.380100000000     0          
T        Si     0.701466666667     0.230966666667     0.460800000000     0          
O        O      0.992700000000     0.226666666667     0.454600000000     0          
O        O      0.925833333333     0.208733333333     0.443550000000     0          
O        O      0.871966666667     0.225433333333     0.401800000000     0          
O        O      0.936300000000     0.227500000000     0.385350000000     0          
O        O      0.969466666667     0.269300000000     0.348750000000     0          
O        O      0.980066666667     0.201200000000     0.347450000000     0          
O        O      0.919566666667     0.227566666667     0.322950000000     0          
O        O      0.917533333333     0.225466666667     0.260150000000     0          
O        O      0.862100000000     0.206866666667     0.288250000000     0          
O        O      0.840466666667     0.226566666667     0.342800000000     0          
O        O      0.796933333333     0.227100000000     0.289950000000     0          
O        O      0.741900000000     0.268900000000     0.287350000000     0          
O        O      0.734300000000     0.201133333333     0.295400000000     0          
O        O      0.719933333333     0.201166666667     0.441200000000     0          
O        O      0.807600000000     0.201133333333     0.389350000000     0          
O        O      0.819033333333     0.268733333333     0.386700000000     0          
O        O      0.755966666667     0.280700000000     0.404750000000     0          
O        O      0.767700000000     0.289933333333     0.344700000000     0          
O        O      0.699533333333     0.280200000000     0.331650000000     0          
O        O      0.687566666667     0.289200000000     0.391600000000     0          
O        O      0.713300000000     0.268966666667     0.449050000000     0          
O        O      0.713900000000     0.226366666667     0.498450000000     0          
T        Si     0.882233333333     0.293100000000     0.118550000000     0          
T        Si     0.931833333333     0.293100000000     0.182550000000     0          
T        Si     0.995533333333     0.292933333333     0.145150000000     0          
T        Si     0.946233333333     0.292966666667     0.081150000000     0          
T        Si     0.706100000000     0.207066666667     0.031050000000     0          
T        Si     0.756566666667     0.207033333333     0.093600000000     0          
T        Si     0.715300000000     0.231366666667     0.148800000000     0          
T        Si     0.762200000000     0.206633333333     0.208950000000     0          
T        Si     0.837266666667     0.206700000000     0.190600000000     0          
T        Si     0.911066666667     0.230700000000     0.221950000000     0          
T        Si     0.831766666667     0.230600000000     0.119900000000     0          
T        Si     0.965200000000     0.230966666667     0.039200000000     0          
O        O      0.673966666667     0.226666666667     0.045400000000     0          
O        O      0.740833333333     0.208733333333     0.056450000000     0          
O        O      0.794700000000     0.225433333333     0.098200000000     0          
O        O      0.730366666667     0.227500000000     0.114650000000     0          
O        O      0.697200000000     0.269300000000     0.151250000000     0          
O        O      0.686600000000     0.201200000000     0.152550000000     0          
O        O      0.747100000000     0.227566666667     0.177050000000     0          
O        O      0.749133333333     0.225466666667     0.239850000000     0          
O        O      0.804566666667     0.206866666667     0.211750000000     0          
O        O      0.826200000000     0.226566666667     0.157200000000     0          
O        O      0.869733333333     0.227100000000     0.210050000000     0          
O        O      0.924766666667     0.268900000000     0.212650000000     0          
O        O      0.932366666667     0.201133333333     0.204600000000     0          
O        O      0.946733333333     0.201166666667     0.058800000000     0          
O        O      0.859066666667     0.201133333333     0.110650000000     0          
O        O      0.847633333333     0.268733333333     0.113300000000     0          
O        O      0.910700000000     0.280700000000     0.095250000000     0          
O        O      0.898966666667     0.289933333333     0.155300000000     0          
O        O      0.967133333333     0.280200000000     0.168350000000     0          
O        O      0.979100000000     0.289200000000     0.108400000000     0          
O        O      0.953366666667     0.268966666667     0.050950000000     0          
O        O      0.952766666667     0.226366666667     0.001550000000     0          
T        Si     0.882233333333     0.040233333333     0.618550000000     0          
T        Si     0.931833333333     0.040233333333     0.682550000000     0          
T        Si     0.995533333333     0.040400000000     0.645150000000     0          
T        Si     0.946233333333     0.040366666667     0.581150000000     0          
T        Si     0.706100000000     0.126266666667     0.531050000000     0          
T        Si     0.756566666667     0.126300000000     0.593600000000     0          
T        Si     0.715300000000     0.101966666667     0.648800000000     0          
T        Si     0.762200000000     0.126700000000     0.708950000000     0          
T        Si     0.837266666667     0.126633333333     0.690600000000     0          
T        Si     0.911066666667     0.102633333333     0.721950000000     0          
T        Si     0.831766666667     0.102733333333     0.619900000000     0          
T        Si     0.965200000000     0.102366666667     0.539200000000     0          
T        Si     0.930000000000     0.166666666667     0.682300000000     0          
T        Si     0.997133333333     0.166666666667     0.642450000000     0          
T        Si     0.949133333333     0.166666666667     0.581000000000     0          
T        Si     0.881966666667     0.166666666667     0.620800000000     0          
O        O      0.673966666667     0.106666666667     0.545400000000     0          
O        O      0.695833333333     0.166666666667     0.523650000000     0          
O        O      0.740833333333     0.124600000000     0.556450000000     0          
O        O      0.760033333333     0.166666666667     0.604850000000     0          
O        O      0.794700000000     0.107900000000     0.598200000000     0          
O        O      0.730366666667     0.105833333333     0.614650000000     0          
O        O      0.697200000000     0.064033333333     0.651250000000     0          
O        O      0.686600000000     0.132133333333     0.652550000000     0          
O        O      0.747100000000     0.105766666667     0.677050000000     0          
O        O      0.749133333333     0.107866666667     0.739850000000     0          
O        O      0.748433333333     0.166666666667     0.706850000000     0          
O        O      0.804566666667     0.126466666667     0.711750000000     0          
O        O      0.826200000000     0.106766666667     0.657200000000     0          
O        O      0.848066666667     0.166666666667     0.684100000000     0          
O        O      0.869733333333     0.106233333333     0.710050000000     0          
O        O      0.924766666667     0.064433333333     0.712650000000     0          
O        O      0.932366666667     0.132200000000     0.704600000000     0          
O        O      0.893700000000     0.166666666667     0.658850000000     0          
O        O      0.962433333333     0.166666666667     0.660950000000     0          
O        O      0.985466666667     0.166666666667     0.604450000000     0          
O        O      0.946733333333     0.132166666667     0.558800000000     0          
O        O      0.916700000000     0.166666666667     0.602350000000     0          
O        O      0.859066666667     0.132200000000     0.610650000000     0          
O        O      0.847633333333     0.064600000000     0.613300000000     0          
O        O      0.871500000000     0.000000000000     0.610850000000     0          
O        O      0.910700000000     0.052633333333     0.595250000000     0          
O        O      0.898966666667     0.043400000000     0.655300000000     0          
O        O      0.936400000000     0.000000000000     0.693950000000     0          
O        O      0.967133333333     0.053133333333     0.668350000000     0          
O        O      0.979100000000     0.044133333333     0.608400000000     0          
O        O      0.942400000000     0.000000000000     0.569950000000     0          
O        O      0.953366666667     0.064366666667     0.550950000000     0          
O        O      0.952766666667     0.106966666667     0.501550000000     0          
O        O      0.672266666667     0.000000000000     0.652750000000     0          
T        Si     0.784433333333     0.040233333333     0.881450000000     0          
T        Si     0.734833333333     0.040233333333     0.817450000000     0          
T        Si     0.671133333333     0.040400000000     0.854850000000     0          
T        Si     0.720433333333     0.040366666667     0.918850000000     0          
T        Si     0.960566666667     0.126266666667     0.968950000000     0          
T        Si     0.910100000000     0.126300000000     0.906400000000     0          
T        Si     0.951366666667     0.101966666667     0.851200000000     0          
T        Si     0.904466666667     0.126700000000     0.791050000000     0          
T        Si     0.829400000000     0.126633333333     0.809400000000     0          
T        Si     0.755600000000     0.102633333333     0.778050000000     0          
T        Si     0.834900000000     0.102733333333     0.880100000000     0          
T        Si     0.701466666667     0.102366666667     0.960800000000     0          
T        Si     0.736666666667     0.166666666667     0.817700000000     0          
T        Si     0.669533333333     0.166666666667     0.857550000000     0          
T        Si     0.717533333333     0.166666666667     0.919000000000     0          
T        Si     0.784700000000     0.166666666667     0.879200000000     0          
O        O      0.992700000000     0.106666666667     0.954600000000     0          
O        O      0.970833333333     0.166666666667     0.976350000000     0          
O        O      0.925833333333     0.124600000000     0.943550000000     0          
O        O      0.906633333333     0.166666666667     0.895150000000     0          
O        O      0.871966666667     0.107900000000     0.901800000000     0          
O        O      0.936300000000     0.105833333333     0.885350000000     0          
O        O      0.969466666667     0.064033333333     0.848750000000     0          
O        O      0.980066666667     0.132133333333     0.847450000000     0          
O        O      0.919566666667     0.105766666667     0.822950000000     0          
O        O      0.917533333333     0.107866666667     0.760150000000     0          
O        O      0.918233333333     0.166666666667     0.793150000000     0          
O        O      0.862100000000     0.126466666667     0.788250000000     0          
O        O      0.840466666667     0.106766666667     0.842800000000     0          
O        O      0.818600000000     0.166666666667     0.815900000000     0          
O        O      0.796933333333     0.106233333333     0.789950000000     0          
O        O      0.741900000000     0.064433333333     0.787350000000     0          
O        O      0.734300000000     0.132200000000     0.795400000000     0          
O        O      0.772966666667     0.166666666667     0.841150000000     0          
O        O      0.704233333333     0.166666666667     0.839050000000     0          
O        O      0.681200000000     0.166666666667     0.895550000000     0          
O        O      0.719933333333     0.132166666667     0.941200000000     0          
O        O      0.749966666667     0.166666666667     0.897650000000     0          
O        O      0.807600000000     0.132200000000     0.889350000000     0          
O        O      0.819033333333     0.064600000000     0.886700000000     0          
O        O      0.795166666667     0.000000000000     0.889150000000     0          
O        O      0.755966666667     0.052633333333     0.904750000000     0          
O        O      0.767700000000     0.043400000000     0.844700000000     0          
O        O      0.730266666667     0.000000000000     0.806050000000     0          
O        O      0.699533333333     0.053133333333     0.831650000000     0          
O        O      0.687566666667     0.044133333333     0.891600000000     0          
O        O      0.724266666667     0.000000000000     0.930050000000     0          
O        O      0.713300000000     0.064366666667     0.949050000000     0          
O        O      0.713900000000     0.106966666667     0.998450000000     0          
O        O      0.994400000000     0.000000000000     0.847250000000     0          
T        Si     0.784433333333     0.293100000000     0.881450000000     0          
T        Si     0.734833333333     0.293100000000     0.817450000000     0          
T        Si     0.671133333333     0.292933333333     0.854850000000     0          
T        Si     0.720433333333     0.292966666667     0.918850000000     0          
T        Si     0.960566666667     0.207066666667     0.968950000000     0          
T        Si     0.910100000000     0.207033333333     0.906400000000     0          
T        Si     0.951366666667     0.231366666667     0.851200000000     0          
T        Si     0.904466666667     0.206633333333     0.791050000000     0          
T        Si     0.829400000000     0.206700000000     0.809400000000     0          
T        Si     0.755600000000     0.230700000000     0.778050000000     0          
T        Si     0.834900000000     0.230600000000     0.880100000000     0          
T        Si     0.701466666667     0.230966666667     0.960800000000     0          
O        O      0.992700000000     0.226666666667     0.954600000000     0          
O        O      0.925833333333     0.208733333333     0.943550000000     0          
O        O      0.871966666667     0.225433333333     0.901800000000     0          
O        O      0.936300000000     0.227500000000     0.885350000000     0          
O        O      0.969466666667     0.269300000000     0.848750000000     0          
O        O      0.980066666667     0.201200000000     0.847450000000     0          
O        O      0.919566666667     0.227566666667     0.822950000000     0          
O        O      0.917533333333     0.225466666667     0.760150000000     0          
O        O      0.862100000000     0.206866666667     0.788250000000     0          
O        O      0.840466666667     0.226566666667     0.842800000000     0          
O        O      0.796933333333     0.227100000000     0.789950000000     0          
O        O      0.741900000000     0.268900000000     0.787350000000     0          
O        O      0.734300000000     0.201133333333     0.795400000000     0          
O        O      0.719933333333     0.201166666667     0.941200000000     0          
O        O      0.807600000000     0.201133333333     0.889350000000     0          
O        O      0.819033333333     0.268733333333     0.886700000000     0          
O        O      0.755966666667     0.280700000000     0.904750000000     0          
O        O      0.767700000000     0.289933333333     0.844700000000     0          
O        O      0.699533333333     0.280200000000     0.831650000000     0          
O        O      0.687566666667     0.289200000000     0.891600000000     0          
O        O      0.713300000000     0.268966666667     0.949050000000     0          
O        O      0.713900000000     0.226366666667     0.998450000000     0          
T        Si     0.882233333333     0.293100000000     0.618550000000     0          
T        Si     0.931833333333     0.293100000000     0.682550000000     0          
T        Si     0.995533333333     0.292933333333     0.645150000000     0          
T        Si     0.946233333333     0.292966666667     0.581150000000     0          
T        Si     0.706100000000     0.207066666667     0.531050000000     0          
T        Si     0.756566666667     0.207033333333     0.593600000000     0          
T        Si     0.715300000000     0.231366666667     0.648800000000     0          
T        Si     0.762200000000     0.206633333333     0.708950000000     0          
T        Si     0.837266666667     0.206700000000     0.690600000000     0          
T        Si     0.911066666667     0.230700000000     0.721950000000     0          
T        Si     0.831766666667     0.230600000000     0.619900000000     0          
T        Si     0.965200000000     0.230966666667     0.539200000000     0          
O        O      0.673966666667     0.226666666667     0.545400000000     0          
O        O      0.740833333333     0.208733333333     0.556450000000     0          
O        O      0.794700000000     0.225433333333     0.598200000000     0          
O        O      0.730366666667     0.227500000000     0.614650000000     0          
O        O      0.697200000000     0.269300000000     0.651250000000     0          
O        O      0.686600000000     0.201200000000     0.652550000000     0          
O        O      0.747100000000     0.227566666667     0.677050000000     0          
O        O      0.749133333333     0.225466666667     0.739850000000     0          
O        O      0.804566666667     0.206866666667     0.711750000000     0          
O        O      0.826200000000     0.226566666667     0.657200000000     0          
O        O      0.869733333333     0.227100000000     0.710050000000     0          
O        O      0.924766666667     0.268900000000     0.712650000000     0          
O        O      0.932366666667     0.201133333333     0.704600000000     0          
O        O      0.946733333333     0.201166666667     0.558800000000     0          
O        O      0.859066666667     0.201133333333     0.610650000000     0          
O        O      0.847633333333     0.268733333333     0.613300000000     0          
O        O      0.910700000000     0.280700000000     0.595250000000     0          
O        O      0.898966666667     0.289933333333     0.655300000000     0          
O        O      0.967133333333     0.280200000000     0.668350000000     0          
O        O      0.979100000000     0.289200000000     0.608400000000     0          
O        O      0.953366666667     0.268966666667     0.550950000000     0          
O        O      0.952766666667     0.226366666667     0.501550000000     0          
T        Si     0.882233333333     0.373566666667     0.118550000000     0          
T        Si     0.931833333333     0.373566666667     0.182550000000     0          
T        Si     0.995533333333     0.373733333333     0.145150000000     0          
T        Si     0.946233333333     0.373700000000     0.081150000000     0          
T        Si     0.706100000000     0.459600000000     0.031050000000     0          
T        Si     0.756566666667     0.459633333333     0.093600000000     0          
T        Si     0.715300000000     0.435300000000     0.148800000000     0          
T        Si     0.762200000000     0.460033333333     0.208950000000     0          
T        Si     0.837266666667     0.459966666667     0.190600000000     0          
T        Si     0.911066666667     0.435966666667     0.221950000000     0          
T        Si     0.831766666667     0.436066666667     0.119900000000     0          
T        Si     0.965200000000     0.435700000000     0.039200000000     0          
T        Si     0.930000000000     0.500000000000     0.182300000000     0          
T        Si     0.997133333333     0.500000000000     0.142450000000     0          
T        Si     0.949133333333     0.500000000000     0.081000000000     0          
T        Si     0.881966666667     0.500000000000     0.120800000000     0          
O        O      0.673966666667     0.440000000000     0.045400000000     0          
O        O      0.695833333333     0.500000000000     0.023650000000     0          
O        O      0.740833333333     0.457933333333     0.056450000000     0          
O        O      0.760033333333     0.500000000000     0.104850000000     0          
O        O      0.794700000000     0.441233333333     0.098200000000     0          
O        O      0.730366666667     0.439166666667     0.114650000000     0          
O        O      0.697200000000     0.397366666667     0.151250000000     0          
O        O      0.686600000000     0.465466666667     0.152550000000     0          
O        O      0.747100000000     0.439100000000     0.177050000000     0          
O        O      0.749133333333     0.441200000000     0.239850000000     0          
O        O      0.748433333333     0.500000000000     0.206850000000     0          
O        O      0.804566666667     0.459800000000     0.211750000000     0          
O        O      0.826200000000     0.440100000000     0.157200000000     0          
O        O      0.848066666667     0.500000000000     0.184100000000     0          
O        O      0.869733333333     0.439566666667     0.210050000000     0          
O        O      0.924766666667     0.397766666667     0.212650000000     0          
O        O      0.932366666667     0.465533333333     0.204600000000     0          
O        O      0.893700000000     0.500000000000     0.158850000000     0          
O        O      0.962433333333     0.500000000000     0.160950000000     0          
O        O      0.985466666667     0.500000000000     0.104450000000     0          
O        O      0.946733333333     0.465500000000     0.058800000000     0          
O        O      0.916700000000     0.500000000000     0.102350000000     0          
O        O      0.859066666667     0.465533333333     0.110650000000     0          
O        O      0.847633333333     0.397933333333     0.113300000000     0          
O        O      0.871500000000     0.333333333333     0.110850000000     0          
O        O      0.910700000000     0.385966666667     0.095250000000     0          
O        O      0.898966666667     0.376733333333     0.155300000000     0          
O        O      0.936400000000     0.333333333333     0.193950000000     0          
O        O      0.967133333333     0.386466666667     0.168350000000     0          
O        O      0.979100000000     0.377466666667     0.108400000000     0          
O        O      0.942400000000     0.333333333333     0.069950000000     0          
O        O      0.953366666667     0.397700000000     0.050950000000     0          
O        O      0.952766666667     0.440300000000     0.001550000000     0          
O        O      0.672266666667     0.333333333333     0.152750000000     0          
T        Si     0.784433333333     0.373566666667     0.381450000000     0          
T        Si     0.734833333333     0.373566666667     0.317450000000     0          
T        Si     0.671133333333     0.373733333333     0.354850000000     0          
T        Si     0.720433333333     0.373700000000     0.418850000000     0          
T        Si     0.960566666667     0.459600000000     0.468950000000     0          
T        Si     0.910100000000     0.459633333333     0.406400000000     0          
T        Si     0.951366666667     0.435300000000     0.351200000000     0          
T        Si     0.904466666667     0.460033333333     0.291050000000     0          
T        Si     0.829400000000     0.459966666667     0.309400000000     0          
T        Si     0.755600000000     0.435966666667     0.278050000000     0          
T        Si     0.834900000000     0.436066666667     0.380100000000     0          
T        Si     0.701466666667     0.435700000000     0.460800000000     0          
T        Si     0.736666666667     0.500000000000     0.317700000000     0          
T        Si     0.669533333333     0.500000000000     0.357550000000     0          
T        Si     0.717533333333     0.500000000000     0.419000000000     0          
T        Si     0.784700000000     0.500000000000     0.379200000000     0          
O        O      0.992700000000     0.440000000000     0.454600000000     0          
O        O      0.970833333333     0.500000000000     0.476350000000     0          
O        O      0.925833333333     0.457933333333     0.443550000000     0          
O        O      0.906633333333     0.500000000000     0.395150000000     0          
O        O      0.871966666667     0.441233333333     0.401800000000     0          
O        O      0.936300000000     0.439166666667     0.385350000000     0          
O        O      0.969466666667     0.397366666667     0.348750000000     0          
O        O      0.980066666667     0.465466666667     0.347450000000     0          
O        O      0.919566666667     0.439100000000     0.322950000000     0          
O        O      0.917533333333     0.441200000000     0.260150000000     0          
O        O      0.918233333333     0.500000000000     0.293150000000     0          
O        O      0.862100000000     0.459800000000     0.288250000000     0          
O        O      0.840466666667     0.440100000000     0.342800000000     0          
O        O      0.818600000000     0.500000000000     0.315900000000     0          
O        O      0.796933333333     0.439566666667     0.289950000000     0          
O        O      0.741900000000     0.397766666667     0.287350000000     0          
O        O      0.734300000000     0.465533333333     0.295400000000     0          
O        O      0.772966666667     0.500000000000     0.341150000000     0          
O        O      0.704233333333     0.500000000000     0.339050000000     0          
O        O      0.681200000000     0.500000000000     0.395550000000     0          
O        O      0.719933333333     0.465500000000     0.441200000000     0          
O        O      0.749966666667     0.500000000000     0.397650000000     0          
O        O      0.807600000000     0.465533333333     0.389350000000     0          
O        O      0.819033333333     0.397933333333     0.386700000000     0          
O        O      0.795166666667     0.333333333333     0.389150000000     0          
O        O      0.755966666667     0.385966666667     0.404750000000     0          
O        O      0.767700000000     0.376733333333     0.344700000000     0          
O        O      0.730266666667     0.333333333333     0.306050000000     0          
O        O      0.699533333333     0.386466666667     0.331650000000     0          
O        O      0.687566666667     0.377466666667     0.391600000000     0          
O        O      0.724266666667     0.333333333333     0.430050000000     0          
O        O      0.713300000000     0.397700000000     0.449050000000     0          
O        O      0.713900000000     0.440300000000     0.498450000000     0          
O        O      0.994400000000     0.333333333333     0.347250000000     0          
T        Si     0.784433333333     0.626433333333     0.381450000000     0          
T        Si     0.734833333333     0.626433333333     0.317450000000     0          
T        Si     0.671133333333     0.626266666667     0.354850000000     0          
T        Si     0.720433333333     0.626300000000     0.418850000000     0          
T        Si     0.960566666667     0.540400000000     0.468950000000     0          
T        Si     0.910100000000     0.540366666667     0.406400000000     0          
T        Si     0.951366666667     0.564700000000     0.351200000000     0          
T        Si     0.904466666667     0.539966666667     0.291050000000     0          
T        Si     0.829400000000     0.540033333333     0.309400000000     0          
T        Si     0.755600000000     0.564033333333     0.278050000000     0          
T        Si     0.834900000000     0.563933333333     0.380100000000     0          
T        Si     0.701466666667     0.564300000000     0.460800000000     0          
O        O      0.992700000000     0.560000000000     0.454600000000     0          
O        O      0.925833333333     0.542066666667     0.443550000000     0          
O        O      0.871966666667     0.558766666667     0.401800000000     0          
O        O      0.936300000000     0.560833333333     0.385350000000     0          
O        O      0.969466666667     0.602633333333     0.348750000000     0          
O        O      0.980066666667     0.534533333333     0.347450000000     0          
O        O      0.919566666667     0.560900000000     0.322950000000     0          
O        O      0.917533333333     0.558800000000     0.260150000000     0          
O        O      0.862100000000     0.540200000000     0.288250000000     0          
O        O      0.840466666667     0.559900000000     0.342800000000     0          
O        O      0.796933333333     0.560433333333     0.289950000000     0          
O        O      0.741900000000     0.602233333333     0.287350000000     0          
O        O      0.734300000000     0.534466666667     0.295400000000     0          
O        O      0.719933333333     0.534500000000     0.441200000000     0          
O        O      0.807600000000     0.534466666667     0.389350000000     0          
O        O      0.819033333333     0.602066666667     0.386700000000     0          
O        O      0.755966666667     0.614033333333     0.404750000000     0          
O        O      0.767700000000     0.623266666667     0.344700000000     0          
O        O      0.699533333333     0.613533333333     0.331650000000     0          
O        O      0.687566666667     0.622533333333     0.391600000000     0          
O        O      0.713300000000     0.602300000000     0.449050000000     0          
O        O      0.713900000000     0.559700000000     0.498450000000     0          
T        Si     0.882233333333     0.626433333333     0.118550000000     0          
T        Si     0.931833333333     0.626433333333     0.182550000000     0          
T        Si     0.995533333333     0.626266666667     0.145150000000     0          
T        Si     0.946233333333     0.626300000000     0.081150000000     0          
T        Si     0.706100000000     0.540400000000     0.031050000000     0          
T        Si     0.756566666667     0.540366666667     0.093600000000     0          
T        Si     0.715300000000     0.564700000000     0.148800000000     0          
T        Si     0.762200000000     0.539966666667     0.208950000000     0          
T        Si     0.837266666667     0.540033333333     0.190600000000     0          
T        Si     0.911066666667     0.564033333333     0.221950000000     0          
T        Si     0.831766666667     0.563933333333     0.119900000000     0          
T        Si     0.965200000000     0.564300000000     0.039200000000     0          
O        O      0.673966666667     0.560000000000     0.045400000000     0          
O        O      0.740833333333     0.542066666667     0.056450000000     0          
O        O      0.794700000000     0.558766666667     0.098200000000     0          
O        O      0.730366666667     0.560833333333     0.114650000000     0          
O        O      0.697200000000     0.602633333333     0.151250000000     0          
O        O      0.686600000000     0.534533333333     0.152550000000     0          
O        O      0.747100000000     0.560900000000     0.177050000000     0          
O        O      0.749133333333     0.558800000000     0.239850000000     0          
O        O      0.804566666667     0.540200000000     0.211750000000     0          
O        O      0.826200000000     0.559900000000     0.157200000000     0          
O        O      0.869733333333     0.560433333333     0.210050000000     0          
O        O      0.924766666667     0.602233333333     0.212650000000     0          
O        O      0.932366666667     0.534466666667     0.204600000000     0          
O        O      0.946733333333     0.534500000000     0.058800000000     0          
O        O      0.859066666667     0.534466666667     0.110650000000     0          
O        O      0.847633333333     0.602066666667     0.113300000000     0          
O        O      0.910700000000     0.614033333333     0.095250000000     0          
O        O      0.898966666667     0.623266666667     0.155300000000     0          
O        O      0.967133333333     0.613533333333     0.168350000000     0          
O        O      0.979100000000     0.622533333333     0.108400000000     0          
O        O      0.953366666667     0.602300000000     0.050950000000     0          
O        O      0.952766666667     0.559700000000     0.001550000000     0          
T        Si     0.882233333333     0.373566666667     0.618550000000     0          
T        Si     0.931833333333     0.373566666667     0.682550000000     0          
T        Si     0.995533333333     0.373733333333     0.645150000000     0          
T        Si     0.946233333333     0.373700000000     0.581150000000     0          
T        Si     0.706100000000     0.459600000000     0.531050000000     0          
T        Si     0.756566666667     0.459633333333     0.593600000000     0          
T        Si     0.715300000000     0.435300000000     0.648800000000     0          
T        Si     0.762200000000     0.460033333333     0.708950000000     0          
T        Si     0.837266666667     0.459966666667     0.690600000000     0          
T        Si     0.911066666667     0.435966666667     0.721950000000     0          
T        Si     0.831766666667     0.436066666667     0.619900000000     0          
T        Si     0.965200000000     0.435700000000     0.539200000000     0          
T        Si     0.930000000000     0.500000000000     0.682300000000     0          
T        Si     0.997133333333     0.500000000000     0.642450000000     0          
T        Si     0.949133333333     0.500000000000     0.581000000000     0          
T        Si     0.881966666667     0.500000000000     0.620800000000     0          
O        O      0.673966666667     0.440000000000     0.545400000000     0          
O        O      0.695833333333     0.500000000000     0.523650000000     0          
O        O      0.740833333333     0.457933333333     0.556450000000     0          
O        O      0.760033333333     0.500000000000     0.604850000000     0          
O        O      0.794700000000     0.441233333333     0.598200000000     0          
O        O      0.730366666667     0.439166666667     0.614650000000     0          
O        O      0.697200000000     0.397366666667     0.651250000000     0          
O        O      0.686600000000     0.465466666667     0.652550000000     0          
O        O      0.747100000000     0.439100000000     0.677050000000     0          
O        O      0.749133333333     0.441200000000     0.739850000000     0          
O        O      0.748433333333     0.500000000000     0.706850000000     0          
O        O      0.804566666667     0.459800000000     0.711750000000     0          
O        O      0.826200000000     0.440100000000     0.657200000000     0          
O        O      0.848066666667     0.500000000000     0.684100000000     0          
O        O      0.869733333333     0.439566666667     0.710050000000     0          
O        O      0.924766666667     0.397766666667     0.712650000000     0          
O        O      0.932366666667     0.465533333333     0.704600000000     0          
O        O      0.893700000000     0.500000000000     0.658850000000     0          
O        O      0.962433333333     0.500000000000     0.660950000000     0          
O        O      0.985466666667     0.500000000000     0.604450000000     0          
O        O      0.946733333333     0.465500000000     0.558800000000     0          
O        O      0.916700000000     0.500000000000     0.602350000000     0          
O        O      0.859066666667     0.465533333333     0.610650000000     0          
O        O      0.847633333333     0.397933333333     0.613300000000     0          
O        O      0.871500000000     0.333333333333     0.610850000000     0          
O        O      0.910700000000     0.385966666667     0.595250000000     0          
O        O      0.898966666667     0.376733333333     0.655300000000     0          
O        O      0.936400000000     0.333333333333     0.693950000000     0          
O        O      0.967133333333     0.386466666667     0.668350000000     0          
O        O      0.979100000000     0.377466666667     0.608400000000     0          
O        O      0.942400000000     0.333333333333     0.569950000000     0          
O        O      0.953366666667     0.397700000000     0.550950000000     0          
O        O      0.952766666667     0.440300000000     0.501550000000     0          
O        O      0.672266666667     0.333333333333     0.652750000000     0          
T        Si     0.784433333333     0.373566666667     0.881450000000     0          
T        Si     0.734833333333     0.373566666667     0.817450000000     0          
T        Si     0.671133333333     0.373733333333     0.854850000000     0          
T        Si     0.720433333333     0.373700000000     0.918850000000     0          
T        Si     0.960566666667     0.459600000000     0.968950000000     0          
T        Si     0.910100000000     0.459633333333     0.906400000000     0          
T        Si     0.951366666667     0.435300000000     0.851200000000     0          
T        Si     0.904466666667     0.460033333333     0.791050000000     0          
T        Si     0.829400000000     0.459966666667     0.809400000000     0          
T        Si     0.755600000000     0.435966666667     0.778050000000     0          
T        Si     0.834900000000     0.436066666667     0.880100000000     0          
T        Si     0.701466666667     0.435700000000     0.960800000000     0          
T        Si     0.736666666667     0.500000000000     0.817700000000     0          
T        Si     0.669533333333     0.500000000000     0.857550000000     0          
T        Si     0.717533333333     0.500000000000     0.919000000000     0          
T        Si     0.784700000000     0.500000000000     0.879200000000     0          
O        O      0.992700000000     0.440000000000     0.954600000000     0          
O        O      0.970833333333     0.500000000000     0.976350000000     0          
O        O      0.925833333333     0.457933333333     0.943550000000     0          
O        O      0.906633333333     0.500000000000     0.895150000000     0          
O        O      0.871966666667     0.441233333333     0.901800000000     0          
O        O      0.936300000000     0.439166666667     0.885350000000     0          
O        O      0.969466666667     0.397366666667     0.848750000000     0          
O        O      0.980066666667     0.465466666667     0.847450000000     0          
O        O      0.919566666667     0.439100000000     0.822950000000     0          
O        O      0.917533333333     0.441200000000     0.760150000000     0          
O        O      0.918233333333     0.500000000000     0.793150000000     0          
O        O      0.862100000000     0.459800000000     0.788250000000     0          
O        O      0.840466666667     0.440100000000     0.842800000000     0          
O        O      0.818600000000     0.500000000000     0.815900000000     0          
O        O      0.796933333333     0.439566666667     0.789950000000     0          
O        O      0.741900000000     0.397766666667     0.787350000000     0          
O        O      0.734300000000     0.465533333333     0.795400000000     0          
O        O      0.772966666667     0.500000000000     0.841150000000     0          
O        O      0.704233333333     0.500000000000     0.839050000000     0          
O        O      0.681200000000     0.500000000000     0.895550000000     0          
O        O      0.719933333333     0.465500000000     0.941200000000     0          
O        O      0.749966666667     0.500000000000     0.897650000000     0          
O        O      0.807600000000     0.465533333333     0.889350000000     0          
O        O      0.819033333333     0.397933333333     0.886700000000     0          
O        O      0.795166666667     0.333333333333     0.889150000000     0          
O        O      0.755966666667     0.385966666667     0.904750000000     0          
O        O      0.767700000000     0.376733333333     0.844700000000     0          
O        O      0.730266666667     0.333333333333     0.806050000000     0          
O        O      0.699533333333     0.386466666667     0.831650000000     0          
O        O      0.687566666667     0.377466666667     0.891600000000     0          
O        O      0.724266666667     0.333333333333     0.930050000000     0          
O        O      0.713300000000     0.397700000000     0.949050000000     0          
O        O      0.713900000000     0.440300000000     0.998450000000     0          
O        O      0.994400000000     0.333333333333     0.847250000000     0          
T        Si     0.784433333333     0.626433333333     0.881450000000     0          
T        Si     0.734833333333     0.626433333333     0.817450000000     0          
T        Si     0.671133333333     0.626266666667     0.854850000000     0          
T        Si     0.720433333333     0.626300000000     0.918850000000     0          
T        Si     0.960566666667     0.540400000000     0.968950000000     0          
T        Si     0.910100000000     0.540366666667     0.906400000000     0          
T        Si     0.951366666667     0.564700000000     0.851200000000     0          
T        Si     0.904466666667     0.539966666667     0.791050000000     0          
T        Si     0.829400000000     0.540033333333     0.809400000000     0          
T        Si     0.755600000000     0.564033333333     0.778050000000     0          
T        Si     0.834900000000     0.563933333333     0.880100000000     0          
T        Si     0.701466666667     0.564300000000     0.960800000000     0          
O        O      0.992700000000     0.560000000000     0.954600000000     0          
O        O      0.925833333333     0.542066666667     0.943550000000     0          
O        O      0.871966666667     0.558766666667     0.901800000000     0          
O        O      0.936300000000     0.560833333333     0.885350000000     0          
O        O      0.969466666667     0.602633333333     0.848750000000     0          
O        O      0.980066666667     0.534533333333     0.847450000000     0          
O        O      0.919566666667     0.560900000000     0.822950000000     0          
O        O      0.917533333333     0.558800000000     0.760150000000     0          
O        O      0.862100000000     0.540200000000     0.788250000000     0          
O        O      0.840466666667     0.559900000000     0.842800000000     0          
O        O      0.796933333333     0.560433333333     0.789950000000     0          
O        O      0.741900000000     0.602233333333     0.787350000000     0          
O        O      0.734300000000     0.534466666667     0.795400000000     0          
O        O      0.719933333333     0.534500000000     0.941200000000     0          
O        O      0.807600000000     0.534466666667     0.889350000000     0          
O        O      0.819033333333     0.602066666667     0.886700000000     0          
O        O      0.755966666667     0.614033333333     0.904750000000     0          
O        O      0.767700000000     0.623266666667     0.844700000000     0          
O        O      0.699533333333     0.613533333333     0.831650000000     0          
O        O      0.687566666667     0.622533333333     0.891600000000     0          
O        O      0.713300000000     0.602300000000     0.949050000000     0          
O        O      0.713900000000     0.559700000000     0.998450000000     0          
T        Si     0.882233333333     0.626433333333     0.618550000000     0          
T        Si     0.931833333333     0.626433333333     0.682550000000     0          
T        Si     0.995533333333     0.626266666667     0.645150000000     0          
T        Si     0.946233333333     0.626300000000     0.581150000000     0          
T        Si     0.706100000000     0.540400000000     0.531050000000     0          
T        Si     0.756566666667     0.540366666667     0.593600000000     0          
T        Si     0.715300000000     0.564700000000     0.648800000000     0          
T        Si     0.762200000000     0.539966666667     0.708950000000     0          
T        Si     0.837266666667     0.540033333333     0.690600000000     0          
T        Si     0.911066666667     0.564033333333     0.721950000000     0          
T        Si     0.831766666667     0.563933333333     0.619900000000     0          
T        Si     0.965200000000     0.564300000000     0.539200000000     0          
O        O      0.673966666667     0.560000000000     0.545400000000     0          
O        O      0.740833333333     0.542066666667     0.556450000000     0          
O        O      0.794700000000     0.558766666667     0.598200000000     0          
O        O      0.730366666667     0.560833333333     0.614650000000     0          
O        O      0.697200000000     0.602633333333     0.651250000000     0          
O        O      0.686600000000     0.534533333333     0.652550000000     0          
O        O      0.747100000000     0.560900000000     0.677050000000     0          
O        O      0.749133333333     0.558800000000     0.739850000000     0          
O        O      0.804566666667     0.540200000000     0.711750000000     0          
O        O      0.826200000000     0.559900000000     0.657200000000     0          
O        O      0.869733333333     0.560433333333     0.710050000000     0          
O        O      0.924766666667     0.602233333333     0.712650000000     0          
O        O      0.932366666667     0.534466666667     0.704600000000     0          
O        O      0.946733333333     0.534500000000     0.558800000000     0          
O        O      0.859066666667     0.534466666667     0.610650000000     0          
O        O      0.847633333333     0.602066666667     0.613300000000     0          
O        O      0.910700000000     0.614033333333     0.595250000000     0          
O        O      0.898966666667     0.623266666667     0.655300000000     0          
O        O      0.967133333333     0.613533333333     0.668350000000     0          
O        O      0.979100000000     0.622533333333     0.608400000000     0          
O        O      0.953366666667     0.602300000000     0.550950000000     0          
O        O      0.952766666667     0.559700000000     0.501550000000     0          
T        Si     0.882233333333     0.706900000000     0.118550000000     0          
T        Si     0.931833333333     0.706900000000     0.182550000000     0          
T        Si     0.995533333333     0.707066666667     0.145150000000     0          
T        Si     0.946233333333     0.707033333333     0.081150000000     0          
T        Si     0.706100000000     0.792933333333     0.031050000000     0          
T        Si     0.756566666667     0.792966666667     0.093600000000     0          
T        Si     0.715300000000     0.768633333333     0.148800000000     0          
T        Si     0.762200000000     0.793366666667     0.208950000000     0          
T        Si     0.837266666667     0.793300000000     0.190600000000     0          
T        Si     0.911066666667     0.769300000000     0.221950000000     0          
T        Si     0.831766666667     0.769400000000     0.119900000000     0          
T        Si     0.965200000000     0.769033333333     0.039200000000     0          
T        Si     0.930000000000     0.833333333333     0.182300000000     0          
T        Si     0.997133333333     0.833333333333     0.142450000000     0          
T        Si     0.949133333333     0.833333333333     0.081000000000     0          
T        Si     0.881966666667     0.833333333333     0.120800000000     0          
O        O      0.673966666667     0.773333333333     0.045400000000     0          
O        O      0.695833333333     0.833333333333     0.023650000000     0          
O        O      0.740833333333     0.791266666667     0.056450000000     0          
O        O      0.760033333333     0.833333333333     0.104850000000     0          
O        O      0.794700000000     0.774566666667     0.098200000000     0          
O        O      0.730366666667     0.772500000000     0.114650000000     0          
O        O      0.697200000000     0.730700000000     0.151250000000     0          
O        O      0.686600000000     0.798800000000     0.152550000000     0          
O        O      0.747100000000     0.772433333333     0.177050000000     0          
O        O      0.749133333333     0.774533333333     0.239850000000     0          
O        O      0.748433333333     0.833333333333     0.206850000000     0          
O        O      0.804566666667     0.793133333333     0.211750000000     0          
O        O      0.826200000000     0.773433333333     0.157200000000     0          
O        O      0.848066666667     0.833333333333     0.184100000000     0          
O        O      0.869733333333     0.772900000000     0.210050000000     0          
O        O      0.924766666667     0.731100000000     0.212650000000     0          
O        O      0.932366666667     0.798866666667     0.204600000000     0          
O        O      0.893700000000     0.833333333333     0.158850000000     0          
O        O      0.962433333333     0.833333333333     0.160950000000     0          
O        O      0.985466666667     0.833333333333     0.104450000000     0          
O        O      0.946733333333     0.798833333333     0.058800000000     0          
O        O      0.916700000000     0.833333333333     0.102350000000     0          
O        O      0.859066666667     0.798866666667     0.110650000000     0          
O        O      0.847633333333     0.731266666667     0.113300000000     0          
O        O      0.871500000000     0.666666666667     0.110850000000     0          
O        O      0.910700000000     0.719300000000     0.095250000000     0          
O        O      0.898966666667     0.710066666667     0.155300000000     0          
O        O      0.936400000000     0.666666666667     0.193950000000     0          
O        O      0.967133333333     0.719800000000     0.168350000000     0          
O        O      0.979100000000     0.710800000000     0.108400000000     0          
O        O      0.942400000000     0.666666666667     0.069950000000     0          
O        O      0.953366666667     0.731033333333     0.050950000000     0          
O        O      0.952766666667     0.773633333333     0.001550000000     0          
O        O      0.672266666667     0.666666666667     0.152750000000     0          
T        Si     0.784433333333     0.706900000000     0.381450000000     0          
T        Si     0.734833333333     0.706900000000     0.317450000000     0          
T        Si     0.671133333333     0.707066666667     0.354850000000     0          
T        Si     0.720433333333     0.707033333333     0.418850000000     0          
T        Si     0.960566666667     0.792933333333     0.468950000000     0          
T        Si     0.910100000000     0.792966666667     0.406400000000     0          
T        Si     0.951366666667     0.768633333333     0.351200000000     0          
T        Si     0.904466666667     0.793366666667     0.291050000000     0          
T        Si     0.829400000000     0.793300000000     0.309400000000     0          
T        Si     0.755600000000     0.769300000000     0.278050000000     0          
T        Si     0.834900000000     0.769400000000     0.380100000000     0          
T        Si     0.701466666667     0.769033333333     0.460800000000     0          
T        Si     0.736666666667     0.833333333333     0.317700000000     0          
T        Si     0.669533333333     0.833333333333     0.357550000000     0          
T        Si     0.717533333333     0.833333333333     0.419000000000     0          
T        Si     0.784700000000     0.833333333333     0.379200000000     0          
O        O      0.992700000000     0.773333333333     0.454600000000     0          
O        O      0.970833333333     0.833333333333     0.476350000000     0          
O        O      0.925833333333     0.791266666667     0.443550000000     0          
O        O      0.906633333333     0.833333333333     0.395150000000     0          
O        O      0.871966666667     0.774566666667     0.401800000000     0          
O        O      0.936300000000     0.772500000000     0.385350000000     0          
O        O      0.969466666667     0.730700000000     0.348750000000     0          
O        O      0.980066666667     0.798800000000     0.347450000000     0          
O        O      0.919566666667     0.772433333333     0.322950000000     0          
O        O      0.917533333333     0.774533333333     0.260150000000     0          
O        O      0.918233333333     0.833333333333     0.293150000000     0          
O        O      0.862100000000     0.793133333333     0.288250000000     0          
O        O      0.840466666667     0.773433333333     0.342800000000     0          
O        O      0.818600000000     0.833333333333     0.315900000000     0          
O        O      0.796933333333     0.772900000000     0.289950000000     0          
O        O      0.741900000000     0.731100000000     0.287350000000     0          
O        O      0.734300000000     0.798866666667     0.295400000000     0          
O        O      0.772966666667     0.833333333333     0.341150000000     0          
O        O      0.704233333333     0.833333333333     0.339050000000     0          
O        O      0.681200000000     0.833333333333     0.395550000000     0          
O        O      0.719933333333     0.798833333333     0.441200000000     0          
O        O      0.749966666667     0.833333333333     0.397650000000     0          
O        O      0.807600000000     0.798866666667     0.389350000000     0          
O        O      0.819033333333     0.731266666667     0.386700000000     0          
O        O      0.795166666667     0.666666666667     0.389150000000     0          
O        O      0.755966666667     0.719300000000     0.404750000000     0          
O        O      0.767700000000     0.710066666667     0.344700000000     0          
O        O      0.730266666667     0.666666666667     0.306050000000     0          
O        O      0.699533333333     0.719800000000     0.331650000000     0          
O        O      0.687566666667     0.710800000000     0.391600000000     0          
O        O      0.724266666667     0.666666666667     0.430050000000     0          
O        O      0.713300000000     0.731033333333     0.449050000000     0          
O        O      0.713900000000     0.773633333333     0.498450000000     0          
O        O      0.994400000000     0.666666666667     0.347250000000     0          
T        Si     0.784433333333     0.959766666667     0.381450000000     0          
T        Si     0.734833333333     0.959766666667     0.317450000000     0          
T        Si     0.671133333333     0.959600000000     0.354850000000     0          
T        Si     0.720433333333     0.959633333333     0.418850000000     0          
T        Si     0.960566666667     0.873733333333     0.468950000000     0          
T        Si     0.910100000000     0.873700000000     0.406400000000     0          
T        Si     0.951366666667     0.898033333333     0.351200000000     0          
T        Si     0.904466666667     0.873300000000     0.291050000000     0          
T        Si     0.829400000000     0.873366666667     0.309400000000     0          
T        Si     0.755600000000     0.897366666667     0.278050000000     0          
T        Si     0.834900000000     0.897266666667     0.380100000000     0          
T        Si     0.701466666667     0.897633333333     0.460800000000     0          
O        O      0.992700000000     0.893333333333     0.454600000000     0          
O        O      0.925833333333     0.875400000000     0.443550000000     0          
O        O      0.871966666667     0.892100000000     0.401800000000     0          
O        O      0.936300000000     0.894166666667     0.385350000000     0          
O        O      0.969466666667     0.935966666667     0.348750000000     0          
O        O      0.980066666667     0.867866666667     0.347450000000     0          
O        O      0.919566666667     0.894233333333     0.322950000000     0          
O        O      0.917533333333     0.892133333333     0.260150000000     0          
O        O      0.862100000000     0.873533333333     0.288250000000     0          
O        O      0.840466666667     0.893233333333     0.342800000000     0          
O        O      0.796933333333     0.893766666667     0.289950000000     0          
O        O      0.741900000000     0.935566666667     0.287350000000     0          
O        O      0.734300000000     0.867800000000     0.295400000000     0          
O        O      0.719933333333     0.867833333333     0.441200000000     0          
O        O      0.807600000000     0.867800000000     0.389350000000     0          
O        O      0.819033333333     0.935400000000     0.386700000000     0          
O        O      0.755966666667     0.947366666667     0.404750000000     0          
O        O      0.767700000000     0.956600000000     0.344700000000     0          
O        O      0.699533333333     0.946866666667     0.331650000000     0          
O        O      0.687566666667     0.955866666667     0.391600000000     0          
O        O      0.713300000000     0.935633333333     0.449050000000     0          
O        O      0.713900000000     0.893033333333     0.498450000000     0          
T        Si     0.882233333333     0.959766666667     0.118550000000     0          
T        Si     0.931833333333     0.959766666667     0.182550000000     0          
T        Si     0.995533333333     0.959600000000     0.145150000000     0          
T        Si     0.946233333333     0.959633333333     0.081150000000     0          
T        Si     0.706100000000     0.873733333333     0.031050000000     0          
T        Si     0.756566666667     0.873700000000     0.093600000000     0          
T        Si     0.715300000000     0.898033333333     0.148800000000     0          
T        Si     0.762200000000     0.873300000000     0.208950000000     0          
T        Si     0.837266666667     0.873366666667     0.190600000000     0          
T        Si     0.911066666667     0.897366666667     0.221950000000     0          
T        Si     0.831766666667     0.897266666667     0.119900000000     0          
T        Si     0.965200000000     0.897633333333     0.039200000000     0          
O        O      0.673966666667     0.893333333333     0.045400000000     0          
O        O      0.740833333333     0.875400000000     0.056450000000     0          
O        O      0.794700000000     0.892100000000     0.098200000000     0          
O        O      0.730366666667     0.894166666667     0.114650000000     0          
O        O      0.697200000000     0.935966666667     0.151250000000     0          
O        O      0.686600000000     0.867866666667     0.152550000000     0          
O        O      0.747100000000     0.894233333333     0.177050000000     0          
O        O      0.749133333333     0.892133333333     0.239850000000     0          
O        O      0.804566666667     0.873533333333     0.211750000000     0          
O        O      0.826200000000     0.893233333333     0.157200000000     0          
O        O      0.869733333333     0.893766666667     0.210050000000     0          
O        O      0.924766666667     0.935566666667     0.212650000000     0          
O        O      0.932366666667     0.867800000000     0.204600000000     0          
O        O      0.946733333333     0.867833333333     0.058800000000     0          
O        O      0.859066666667     0.867800000000     0.110650000000     0          
O        O      0.847633333333     0.935400000000     0.113300000000     0          
O        O      0.910700000000     0.947366666667     0.095250000000     0          
O        O      0.898966666667     0.956600000000     0.155300000000     0          
O        O      0.967133333333     0.946866666667     0.168350000000     0          
O        O      0.979100000000     0.955866666667     0.108400000000     0          
O        O      0.953366666667     0.935633333333     0.050950000000     0          
O        O      0.952766666667     0.893033333333     0.001550000000     0          
T        Si     0.882233333333     0.706900000000     0.618550000000     0          
T        Si     0.931833333333     0.706900000000     0.682550000000     0          
T        Si     0.995533333333     0.707066666667     0.645150000000     0          
T        Si     0.946233333333     0.707033333333     0.581150000000     0          
T        Si     0.706100000000     0.792933333333     0.531050000000     0          
T        Si     0.756566666667     0.792966666667     0.593600000000     0          
T        Si     0.715300000000     0.768633333333     0.648800000000     0          
T        Si     0.762200000000     0.793366666667     0.708950000000     0          
T        Si     0.837266666667     0.793300000000     0.690600000000     0          
T        Si     0.911066666667     0.769300000000     0.721950000000     0          
T        Si     0.831766666667     0.769400000000     0.619900000000     0          
T        Si     0.965200000000     0.769033333333     0.539200000000     0          
T        Si     0.930000000000     0.833333333333     0.682300000000     0          
T        Si     0.997133333333     0.833333333333     0.642450000000     0          
T        Si     0.949133333333     0.833333333333     0.581000000000     0          
T        Si     0.881966666667     0.833333333333     0.620800000000     0          
O        O      0.673966666667     0.773333333333     0.545400000000     0          
O        O      0.695833333333     0.833333333333     0.523650000000     0          
O        O      0.740833333333     0.791266666667     0.556450000000     0          
O        O      0.760033333333     0.833333333333     0.604850000000     0          
O        O      0.794700000000     0.774566666667     0.598200000000     0          
O        O      0.730366666667     0.772500000000     0.614650000000     0          
O        O      0.697200000000     0.730700000000     0.651250000000     0          
O        O      0.686600000000     0.798800000000     0.652550000000     0          
O        O      0.747100000000     0.772433333333     0.677050000000     0          
O        O      0.749133333333     0.774533333333     0.739850000000     0          
O        O      0.748433333333     0.833333333333     0.706850000000     0          
O        O      0.804566666667     0.793133333333     0.711750000000     0          
O        O      0.826200000000     0.773433333333     0.657200000000     0          
O        O      0.848066666667     0.833333333333     0.684100000000     0          
O        O      0.869733333333     0.772900000000     0.710050000000     0          
O        O      0.924766666667     0.731100000000     0.712650000000     0          
O        O      0.932366666667     0.798866666667     0.704600000000     0          
O        O      0.893700000000     0.833333333333     0.658850000000     0          
O        O      0.962433333333     0.833333333333     0.660950000000     0          
O        O      0.985466666667     0.833333333333     0.604450000000     0          
O        O      0.946733333333     0.798833333333     0.558800000000     0          
O        O      0.916700000000     0.833333333333     0.602350000000     0          
O        O      0.859066666667     0.798866666667     0.610650000000     0          
O        O      0.847633333333     0.731266666667     0.613300000000     0          
O        O      0.871500000000     0.666666666667     0.610850000000     0          
O        O      0.910700000000     0.719300000000     0.595250000000     0          
O        O      0.898966666667     0.710066666667     0.655300000000     0          
O        O      0.936400000000     0.666666666667     0.693950000000     0          
O        O      0.967133333333     0.719800000000     0.668350000000     0          
O        O      0.979100000000     0.710800000000     0.608400000000     0          
O        O      0.942400000000     0.666666666667     0.569950000000     0          
O        O      0.953366666667     0.731033333333     0.550950000000     0          
O        O      0.952766666667     0.773633333333     0.501550000000     0          
O        O      0.672266666667     0.666666666667     0.652750000000     0          
T        Si     0.784433333333     0.706900000000     0.881450000000     0          
T        Si     0.734833333333     0.706900000000     0.817450000000     0          
T        Si     0.671133333333     0.707066666667     0.854850000000     0          
T        Si     0.720433333333     0.707033333333     0.918850000000     0          
T        Si     0.960566666667     0.792933333333     0.968950000000     0          
T        Si     0.910100000000     0.792966666667     0.906400000000     0          
T        Si     0.951366666667     0.768633333333     0.851200000000     0          
T        Si     0.904466666667     0.793366666667     0.791050000000     0          
T        Si     0.829400000000     0.793300000000     0.809400000000     0          
T        Si     0.755600000000     0.769300000000     0.778050000000     0          
T        Si     0.834900000000     0.769400000000     0.880100000000     0          
T        Si     0.701466666667     0.769033333333     0.960800000000     0          
T        Si     0.736666666667     0.833333333333     0.817700000000     0          
T        Si     0.669533333333     0.833333333333     0.857550000000     0          
T        Si     0.717533333333     0.833333333333     0.919000000000     0          
T        Si     0.784700000000     0.833333333333     0.879200000000     0          
O        O      0.992700000000     0.773333333333     0.954600000000     0          
O        O      0.970833333333     0.833333333333     0.976350000000     0          
O        O      0.925833333333     0.791266666667     0.943550000000     0          
O        O      0.906633333333     0.833333333333     0.895150000000     0          
O        O      0.871966666667     0.774566666667     0.901800000000     0          
O        O      0.936300000000     0.772500000000     0.885350000000     0          
O        O      0.969466666667     0.730700000000     0.848750000000     0          
O        O      0.980066666667     0.798800000000     0.847450000000     0          
O        O      0.919566666667     0.772433333333     0.822950000000     0          
O        O      0.917533333333     0.774533333333     0.760150000000     0          
O        O      0.918233333333     0.833333333333     0.793150000000     0          
O        O      0.862100000000     0.793133333333     0.788250000000     0          
O        O      0.840466666667     0.773433333333     0.842800000000     0          
O        O      0.818600000000     0.833333333333     0.815900000000     0          
O        O      0.796933333333     0.772900000000     0.789950000000     0          
O        O      0.741900000000     0.731100000000     0.787350000000     0          
O        O      0.734300000000     0.798866666667     0.795400000000     0          
O        O      0.772966666667     0.833333333333     0.841150000000     0          
O        O      0.704233333333     0.833333333333     0.839050000000     0          
O        O      0.681200000000     0.833333333333     0.895550000000     0          
O        O      0.719933333333     0.798833333333     0.941200000000     0          
O        O      0.749966666667     0.833333333333     0.897650000000     0          
O        O      0.807600000000     0.798866666667     0.889350000000     0          
O        O      0.819033333333     0.731266666667     0.886700000000     0          
O        O      0.795166666667     0.666666666667     0.889150000000     0          
O        O      0.755966666667     0.719300000000     0.904750000000     0          
O        O      0.767700000000     0.710066666667     0.844700000000     0          
O        O      0.730266666667     0.666666666667     0.806050000000     0          
O        O      0.699533333333     0.719800000000     0.831650000000     0          
O        O      0.687566666667     0.710800000000     0.891600000000     0          
O        O      0.724266666667     0.666666666667     0.930050000000     0          
O        O      0.713300000000     0.731033333333     0.949050000000     0          
O        O      0.713900000000     0.773633333333     0.998450000000     0          
O        O      0.994400000000     0.666666666667     0.847250000000     0          
T        Si     0.784433333333     0.959766666667     0.881450000000     0          
T        Si     0.734833333333     0.959766666667     0.817450000000     0          
T        Si     0.671133333333     0.959600000000     0.854850000000     0          
T        Si     0.720433333333     0.959633333333     0.918850000000     0          
T        Si     0.960566666667     0.873733333333     0.968950000000     0          
T        Si     0.910100000000     0.873700000000     0.906400000000     0          
T        Si     0.951366666667     0.898033333333     0.851200000000     0          
T        Si     0.904466666667     0.873300000000     0.791050000000     0          
T        Si     0.829400000000     0.873366666667     0.809400000000     0          
T        Si     0.755600000000     0.897366666667     0.778050000000     0          
T        Si     0.834900000000     0.897266666667     0.880100000000     0          
T        Si     0.701466666667     0.897633333333     0.960800000000     0          
O        O      0.992700000000     0.893333333333     0.954600000000     0          
O        O      0.925833333333     0.875400000000     0.943550000000     0          
O        O      0.871966666667     0.892100000000     0.901800000000     0          
O        O      0.936300000000     0.894166666667     0.885350000000     0          
O        O      0.969466666667     0.935966666667     0.848750000000     0          
O        O      0.980066666667     0.867866666667     0.847450000000     0          
O        O      0.919566666667     0.894233333333     0.822950000000     0          
O        O      0.917533333333     0.892133333333     0.760150000000     0          
O        O      0.862100000000     0.873533333333     0.788250000000     0          
O        O      0.840466666667     0.893233333333     0.842800000000     0          
O        O      0.796933333333     0.893766666667     0.789950000000     0          
O        O      0.741900000000     0.935566666667     0.787350000000     0          
O        O      0.734300000000     0.867800000000     0.795400000000     0          
O        O      0.719933333333     0.867833333333     0.941200000000     0          
O        O      0.807600000000     0.867800000000     0.889350000000     0          
O        O      0.819033333333     0.935400000000     0.886700000000     0          
O        O      0.755966666667     0.947366666667     0.904750000000     0          
O        O      0.767700000000     0.956600000000     0.844700000000     0          
O        O      0.699533333333     0.946866666667     0.831650000000     0          
O        O      0.687566666667     0.955866666667     0.891600000000     0          
O        O      0.713300000000     0.935633333333     0.949050000000     0          
O        O      0.713900000000     0.893033333333     0.998450000000     0          
T        Si     0.882233333333     0.959766666667     0.618550000000     0          
T        Si     0.931833333333     0.959766666667     0.682550000000     0          
T        Si     0.995533333333     0.959600000000     0.645150000000     0          
T        Si     0.946233333333     0.959633333333     0.581150000000     0          
T        Si     0.706100000000     0.873733333333     0.531050000000     0          
T        Si     0.756566666667     0.873700000000     0.593600000000     0          
T        Si     0.715300000000     0.898033333333     0.648800000000     0          
T        Si     0.762200000000     0.873300000000     0.708950000000     0          
T        Si     0.837266666667     0.873366666667     0.690600000000     0          
T        Si     0.911066666667     0.897366666667     0.721950000000     0          
T        Si     0.831766666667     0.897266666667     0.619900000000     0          
T        Si     0.965200000000     0.897633333333     0.539200000000     0          
O        O      0.673966666667     0.893333333333     0.545400000000     0          
O        O      0.740833333333     0.875400000000     0.556450000000     0          
O        O      0.794700000000     0.892100000000     0.598200000000     0          
O        O      0.730366666667     0.894166666667     0.614650000000     0          
O        O      0.697200000000     0.935966666667     0.651250000000     0          
O        O      0.686600000000     0.867866666667     0.652550000000     0          
O        O      0.747100000000     0.894233333333     0.677050000000     0          
O        O      0.749133333333     0.892133333333     0.739850000000     0          
O        O      0.804566666667     0.873533333333     0.711750000000     0          
O        O      0.826200000000     0.893233333333     0.657200000000     0          
O        O      0.869733333333     0.893766666667     0.710050000000     0          
O        O      0.924766666667     0.935566666667     0.712650000000     0          
O        O      0.932366666667     0.867800000000     0.704600000000     0          
O        O      0.946733333333     0.867833333333     0.558800000000     0          
O        O      0.859066666667     0.867800000000     0.610650000000     0          
O        O      0.847633333333     0.935400000000     0.613300000000     0          
O        O      0.910700000000     0.947366666667     0.595250000000     0          
O        O      0.898966666667     0.956600000000     0.655300000000     0          
O        O      0.967133333333     0.946866666667     0.668350000000     0          
O        O      0.979100000000     0.955866666667     0.608400000000     0          
O        O      0.953366666667     0.935633333333     0.550950000000     0          
O        O      0.952766666667     0.893033333333     0.501550000000     0          


