data_zeolite

_audit_creation_method RASPA-1.0
_audit_creation_date 2021-1-30
_audit_author_name ''

_cell_length_a    42.238
_cell_length_b    25.942
_cell_length_c    29.016
_cell_angle_alpha 90
_cell_angle_beta  108.367
_cell_angle_gamma 90
_cell_volume      30174.3

_symmetry_cell_setting          monoclinic
_symmetry_space_group_name_Hall 'P 1'
_symmetry_space_group_name_H-M  'P 1'
_symmetry_Int_Tables_number     1

_symmetry_equiv_pos_as_xyz 'x,y,z'

loop_
_atom_site_label
_atom_site_type_symbol
_atom_site_fract_x
_atom_site_fract_y
_atom_site_fract_z
_atom_site_charge
O        O      0.330050000000     0.067800000000     0.063200000000     0          
O        O      0.368750000000     0.000000000000     0.039833333333     0          
O        O      0.389500000000     0.095000000000     0.060333333333     0          
O        O      0.341250000000     0.074700000000     0.312600000000     0          
O        O      0.420050000000     0.100400000000     0.216900000000     0          
O        O      0.373550000000     0.061800000000     0.249233333333     0          
O        O      0.406400000000     0.000000000000     0.209233333333     0          
O        O      0.364200000000     0.067050000000     0.155400000000     0          
O        O      0.298900000000     0.434450000000     0.129600000000     0          
O        O      0.311850000000     0.095150000000     0.220266666667     0          
O        O      0.250000000000     0.077100000000     0.166666666667     0          
O        O      0.292150000000     0.000000000000     0.195066666667     0          
T        Si     0.357350000000     0.059500000000     0.035600000000     0          
T        Si     0.391350000000     0.057250000000     0.207766666667     0          
T        Si     0.330500000000     0.412500000000     0.116033333333     0          
T        Si     0.288200000000     0.059350000000     0.177966666667     0          
T        Si     0.346700000000     0.403200000000     0.263800000000     0          
O        O      0.169950000000     0.067800000000     0.270133333333     0          
O        O      0.131250000000     0.000000000000     0.293500000000     0          
O        O      0.110500000000     0.095000000000     0.273000000000     0          
O        O      0.158750000000     0.074700000000     0.020733333333     0          
O        O      0.079950000000     0.100400000000     0.116433333333     0          
O        O      0.126450000000     0.061800000000     0.084100000000     0          
O        O      0.093600000000     0.000000000000     0.124100000000     0          
O        O      0.135800000000     0.067050000000     0.177933333333     0          
O        O      0.201100000000     0.434450000000     0.203733333333     0          
O        O      0.188150000000     0.095150000000     0.113066666667     0          
O        O      0.207850000000     0.000000000000     0.138266666667     0          
T        Si     0.142650000000     0.059500000000     0.297733333333     0          
T        Si     0.108650000000     0.057250000000     0.125566666667     0          
T        Si     0.169500000000     0.412500000000     0.217300000000     0          
T        Si     0.211800000000     0.059350000000     0.155366666667     0          
T        Si     0.153300000000     0.403200000000     0.069533333333     0          
O        O      0.169950000000     0.432200000000     0.270133333333     0          
O        O      0.110500000000     0.405000000000     0.273000000000     0          
O        O      0.158750000000     0.425300000000     0.020733333333     0          
O        O      0.079950000000     0.399600000000     0.116433333333     0          
O        O      0.126450000000     0.438200000000     0.084100000000     0          
O        O      0.135800000000     0.432950000000     0.177933333333     0          
O        O      0.201100000000     0.065550000000     0.203733333333     0          
O        O      0.188150000000     0.404850000000     0.113066666667     0          
O        O      0.250000000000     0.422900000000     0.166666666667     0          
T        Si     0.142650000000     0.440500000000     0.297733333333     0          
T        Si     0.108650000000     0.442750000000     0.125566666667     0          
T        Si     0.169500000000     0.087500000000     0.217300000000     0          
T        Si     0.211800000000     0.440650000000     0.155366666667     0          
T        Si     0.153300000000     0.096800000000     0.069533333333     0          
O        O      0.330050000000     0.432200000000     0.063200000000     0          
O        O      0.389500000000     0.405000000000     0.060333333333     0          
O        O      0.341250000000     0.425300000000     0.312600000000     0          
O        O      0.420050000000     0.399600000000     0.216900000000     0          
O        O      0.373550000000     0.438200000000     0.249233333333     0          
O        O      0.364200000000     0.432950000000     0.155400000000     0          
O        O      0.298900000000     0.065550000000     0.129600000000     0          
O        O      0.311850000000     0.404850000000     0.220266666667     0          
T        Si     0.357350000000     0.440500000000     0.035600000000     0          
T        Si     0.391350000000     0.442750000000     0.207766666667     0          
T        Si     0.330500000000     0.087500000000     0.116033333333     0          
T        Si     0.288200000000     0.440650000000     0.177966666667     0          
T        Si     0.346700000000     0.096800000000     0.263800000000     0          
O        O      0.080050000000     0.317800000000     0.063200000000     0          
O        O      0.118750000000     0.250000000000     0.039833333333     0          
O        O      0.139500000000     0.345000000000     0.060333333333     0          
O        O      0.091250000000     0.324700000000     0.312600000000     0          
O        O      0.170050000000     0.350400000000     0.216900000000     0          
O        O      0.123550000000     0.311800000000     0.249233333333     0          
O        O      0.156400000000     0.250000000000     0.209233333333     0          
O        O      0.114200000000     0.317050000000     0.155400000000     0          
O        O      0.048900000000     0.184450000000     0.129600000000     0          
O        O      0.061850000000     0.345150000000     0.220266666667     0          
O        O      0.000000000000     0.327100000000     0.166666666667     0          
O        O      0.042150000000     0.250000000000     0.195066666667     0          
T        Si     0.107350000000     0.309500000000     0.035600000000     0          
T        Si     0.141350000000     0.307250000000     0.207766666667     0          
T        Si     0.080500000000     0.162500000000     0.116033333333     0          
T        Si     0.038200000000     0.309350000000     0.177966666667     0          
T        Si     0.096700000000     0.153200000000     0.263800000000     0          
O        O      0.419950000000     0.317800000000     0.270133333333     0          
O        O      0.381250000000     0.250000000000     0.293500000000     0          
O        O      0.360500000000     0.345000000000     0.273000000000     0          
O        O      0.408750000000     0.324700000000     0.020733333333     0          
O        O      0.329950000000     0.350400000000     0.116433333333     0          
O        O      0.376450000000     0.311800000000     0.084100000000     0          
O        O      0.343600000000     0.250000000000     0.124100000000     0          
O        O      0.385800000000     0.317050000000     0.177933333333     0          
O        O      0.451100000000     0.184450000000     0.203733333333     0          
O        O      0.438150000000     0.345150000000     0.113066666667     0          
O        O      0.457850000000     0.250000000000     0.138266666667     0          
T        Si     0.392650000000     0.309500000000     0.297733333333     0          
T        Si     0.358650000000     0.307250000000     0.125566666667     0          
T        Si     0.419500000000     0.162500000000     0.217300000000     0          
T        Si     0.461800000000     0.309350000000     0.155366666667     0          
T        Si     0.403300000000     0.153200000000     0.069533333333     0          
O        O      0.419950000000     0.182200000000     0.270133333333     0          
O        O      0.360500000000     0.155000000000     0.273000000000     0          
O        O      0.408750000000     0.175300000000     0.020733333333     0          
O        O      0.329950000000     0.149600000000     0.116433333333     0          
O        O      0.376450000000     0.188200000000     0.084100000000     0          
O        O      0.385800000000     0.182950000000     0.177933333333     0          
O        O      0.451100000000     0.315550000000     0.203733333333     0          
O        O      0.438150000000     0.154850000000     0.113066666667     0          
O        O      0.000000000000     0.172900000000     0.166666666667     0          
T        Si     0.392650000000     0.190500000000     0.297733333333     0          
T        Si     0.358650000000     0.192750000000     0.125566666667     0          
T        Si     0.419500000000     0.337500000000     0.217300000000     0          
T        Si     0.461800000000     0.190650000000     0.155366666667     0          
T        Si     0.403300000000     0.346800000000     0.069533333333     0          
O        O      0.080050000000     0.182200000000     0.063200000000     0          
O        O      0.139500000000     0.155000000000     0.060333333333     0          
O        O      0.091250000000     0.175300000000     0.312600000000     0          
O        O      0.170050000000     0.149600000000     0.216900000000     0          
O        O      0.123550000000     0.188200000000     0.249233333333     0          
O        O      0.114200000000     0.182950000000     0.155400000000     0          
O        O      0.048900000000     0.315550000000     0.129600000000     0          
O        O      0.061850000000     0.154850000000     0.220266666667     0          
T        Si     0.107350000000     0.190500000000     0.035600000000     0          
T        Si     0.141350000000     0.192750000000     0.207766666667     0          
T        Si     0.080500000000     0.337500000000     0.116033333333     0          
T        Si     0.038200000000     0.190650000000     0.177966666667     0          
T        Si     0.096700000000     0.346800000000     0.263800000000     0          
O        O      0.330050000000     0.067800000000     0.396533333333     0          
O        O      0.368750000000     0.000000000000     0.373166666667     0          
O        O      0.389500000000     0.095000000000     0.393666666667     0          
O        O      0.341250000000     0.074700000000     0.645933333333     0          
O        O      0.420050000000     0.100400000000     0.550233333333     0          
O        O      0.373550000000     0.061800000000     0.582566666667     0          
O        O      0.406400000000     0.000000000000     0.542566666667     0          
O        O      0.364200000000     0.067050000000     0.488733333333     0          
O        O      0.298900000000     0.434450000000     0.462933333333     0          
O        O      0.311850000000     0.095150000000     0.553600000000     0          
O        O      0.250000000000     0.077100000000     0.500000000000     0          
O        O      0.292150000000     0.000000000000     0.528400000000     0          
T        Si     0.357350000000     0.059500000000     0.368933333333     0          
T        Si     0.391350000000     0.057250000000     0.541100000000     0          
T        Si     0.330500000000     0.412500000000     0.449366666667     0          
T        Si     0.288200000000     0.059350000000     0.511300000000     0          
T        Si     0.346700000000     0.403200000000     0.597133333333     0          
O        O      0.169950000000     0.067800000000     0.603466666667     0          
O        O      0.131250000000     0.000000000000     0.626833333333     0          
O        O      0.110500000000     0.095000000000     0.606333333333     0          
O        O      0.158750000000     0.074700000000     0.354066666667     0          
O        O      0.079950000000     0.100400000000     0.449766666667     0          
O        O      0.126450000000     0.061800000000     0.417433333333     0          
O        O      0.093600000000     0.000000000000     0.457433333333     0          
O        O      0.135800000000     0.067050000000     0.511266666667     0          
O        O      0.201100000000     0.434450000000     0.537066666667     0          
O        O      0.188150000000     0.095150000000     0.446400000000     0          
O        O      0.207850000000     0.000000000000     0.471600000000     0          
T        Si     0.142650000000     0.059500000000     0.631066666667     0          
T        Si     0.108650000000     0.057250000000     0.458900000000     0          
T        Si     0.169500000000     0.412500000000     0.550633333333     0          
T        Si     0.211800000000     0.059350000000     0.488700000000     0          
T        Si     0.153300000000     0.403200000000     0.402866666667     0          
O        O      0.169950000000     0.432200000000     0.603466666667     0          
O        O      0.110500000000     0.405000000000     0.606333333333     0          
O        O      0.158750000000     0.425300000000     0.354066666667     0          
O        O      0.079950000000     0.399600000000     0.449766666667     0          
O        O      0.126450000000     0.438200000000     0.417433333333     0          
O        O      0.135800000000     0.432950000000     0.511266666667     0          
O        O      0.201100000000     0.065550000000     0.537066666667     0          
O        O      0.188150000000     0.404850000000     0.446400000000     0          
O        O      0.250000000000     0.422900000000     0.500000000000     0          
T        Si     0.142650000000     0.440500000000     0.631066666667     0          
T        Si     0.108650000000     0.442750000000     0.458900000000     0          
T        Si     0.169500000000     0.087500000000     0.550633333333     0          
T        Si     0.211800000000     0.440650000000     0.488700000000     0          
T        Si     0.153300000000     0.096800000000     0.402866666667     0          
O        O      0.330050000000     0.432200000000     0.396533333333     0          
O        O      0.389500000000     0.405000000000     0.393666666667     0          
O        O      0.341250000000     0.425300000000     0.645933333333     0          
O        O      0.420050000000     0.399600000000     0.550233333333     0          
O        O      0.373550000000     0.438200000000     0.582566666667     0          
O        O      0.364200000000     0.432950000000     0.488733333333     0          
O        O      0.298900000000     0.065550000000     0.462933333333     0          
O        O      0.311850000000     0.404850000000     0.553600000000     0          
T        Si     0.357350000000     0.440500000000     0.368933333333     0          
T        Si     0.391350000000     0.442750000000     0.541100000000     0          
T        Si     0.330500000000     0.087500000000     0.449366666667     0          
T        Si     0.288200000000     0.440650000000     0.511300000000     0          
T        Si     0.346700000000     0.096800000000     0.597133333333     0          
O        O      0.080050000000     0.317800000000     0.396533333333     0          
O        O      0.118750000000     0.250000000000     0.373166666667     0          
O        O      0.139500000000     0.345000000000     0.393666666667     0          
O        O      0.091250000000     0.324700000000     0.645933333333     0          
O        O      0.170050000000     0.350400000000     0.550233333333     0          
O        O      0.123550000000     0.311800000000     0.582566666667     0          
O        O      0.156400000000     0.250000000000     0.542566666667     0          
O        O      0.114200000000     0.317050000000     0.488733333333     0          
O        O      0.048900000000     0.184450000000     0.462933333333     0          
O        O      0.061850000000     0.345150000000     0.553600000000     0          
O        O      0.000000000000     0.327100000000     0.500000000000     0          
O        O      0.042150000000     0.250000000000     0.528400000000     0          
T        Si     0.107350000000     0.309500000000     0.368933333333     0          
T        Si     0.141350000000     0.307250000000     0.541100000000     0          
T        Si     0.080500000000     0.162500000000     0.449366666667     0          
T        Si     0.038200000000     0.309350000000     0.511300000000     0          
T        Si     0.096700000000     0.153200000000     0.597133333333     0          
O        O      0.419950000000     0.317800000000     0.603466666667     0          
O        O      0.381250000000     0.250000000000     0.626833333333     0          
O        O      0.360500000000     0.345000000000     0.606333333333     0          
O        O      0.408750000000     0.324700000000     0.354066666667     0          
O        O      0.329950000000     0.350400000000     0.449766666667     0          
O        O      0.376450000000     0.311800000000     0.417433333333     0          
O        O      0.343600000000     0.250000000000     0.457433333333     0          
O        O      0.385800000000     0.317050000000     0.511266666667     0          
O        O      0.451100000000     0.184450000000     0.537066666667     0          
O        O      0.438150000000     0.345150000000     0.446400000000     0          
O        O      0.457850000000     0.250000000000     0.471600000000     0          
T        Si     0.392650000000     0.309500000000     0.631066666667     0          
T        Si     0.358650000000     0.307250000000     0.458900000000     0          
T        Si     0.419500000000     0.162500000000     0.550633333333     0          
T        Si     0.461800000000     0.309350000000     0.488700000000     0          
T        Si     0.403300000000     0.153200000000     0.402866666667     0          
O        O      0.419950000000     0.182200000000     0.603466666667     0          
O        O      0.360500000000     0.155000000000     0.606333333333     0          
O        O      0.408750000000     0.175300000000     0.354066666667     0          
O        O      0.329950000000     0.149600000000     0.449766666667     0          
O        O      0.376450000000     0.188200000000     0.417433333333     0          
O        O      0.385800000000     0.182950000000     0.511266666667     0          
O        O      0.451100000000     0.315550000000     0.537066666667     0          
O        O      0.438150000000     0.154850000000     0.446400000000     0          
O        O      0.000000000000     0.172900000000     0.500000000000     0          
T        Si     0.392650000000     0.190500000000     0.631066666667     0          
T        Si     0.358650000000     0.192750000000     0.458900000000     0          
T        Si     0.419500000000     0.337500000000     0.550633333333     0          
T        Si     0.461800000000     0.190650000000     0.488700000000     0          
T        Si     0.403300000000     0.346800000000     0.402866666667     0          
O        O      0.080050000000     0.182200000000     0.396533333333     0          
O        O      0.139500000000     0.155000000000     0.393666666667     0          
O        O      0.091250000000     0.175300000000     0.645933333333     0          
O        O      0.170050000000     0.149600000000     0.550233333333     0          
O        O      0.123550000000     0.188200000000     0.582566666667     0          
O        O      0.114200000000     0.182950000000     0.488733333333     0          
O        O      0.048900000000     0.315550000000     0.462933333333     0          
O        O      0.061850000000     0.154850000000     0.553600000000     0          
T        Si     0.107350000000     0.190500000000     0.368933333333     0          
T        Si     0.141350000000     0.192750000000     0.541100000000     0          
T        Si     0.080500000000     0.337500000000     0.449366666667     0          
T        Si     0.038200000000     0.190650000000     0.511300000000     0          
T        Si     0.096700000000     0.346800000000     0.597133333333     0          
O        O      0.330050000000     0.067800000000     0.729866666667     0          
O        O      0.368750000000     0.000000000000     0.706500000000     0          
O        O      0.389500000000     0.095000000000     0.727000000000     0          
O        O      0.341250000000     0.074700000000     0.979266666667     0          
O        O      0.420050000000     0.100400000000     0.883566666667     0          
O        O      0.373550000000     0.061800000000     0.915900000000     0          
O        O      0.406400000000     0.000000000000     0.875900000000     0          
O        O      0.364200000000     0.067050000000     0.822066666667     0          
O        O      0.298900000000     0.434450000000     0.796266666667     0          
O        O      0.311850000000     0.095150000000     0.886933333333     0          
O        O      0.250000000000     0.077100000000     0.833333333333     0          
O        O      0.292150000000     0.000000000000     0.861733333333     0          
T        Si     0.357350000000     0.059500000000     0.702266666667     0          
T        Si     0.391350000000     0.057250000000     0.874433333333     0          
T        Si     0.330500000000     0.412500000000     0.782700000000     0          
T        Si     0.288200000000     0.059350000000     0.844633333333     0          
T        Si     0.346700000000     0.403200000000     0.930466666667     0          
O        O      0.169950000000     0.067800000000     0.936800000000     0          
O        O      0.131250000000     0.000000000000     0.960166666667     0          
O        O      0.110500000000     0.095000000000     0.939666666667     0          
O        O      0.158750000000     0.074700000000     0.687400000000     0          
O        O      0.079950000000     0.100400000000     0.783100000000     0          
O        O      0.126450000000     0.061800000000     0.750766666667     0          
O        O      0.093600000000     0.000000000000     0.790766666667     0          
O        O      0.135800000000     0.067050000000     0.844600000000     0          
O        O      0.201100000000     0.434450000000     0.870400000000     0          
O        O      0.188150000000     0.095150000000     0.779733333333     0          
O        O      0.207850000000     0.000000000000     0.804933333333     0          
T        Si     0.142650000000     0.059500000000     0.964400000000     0          
T        Si     0.108650000000     0.057250000000     0.792233333333     0          
T        Si     0.169500000000     0.412500000000     0.883966666667     0          
T        Si     0.211800000000     0.059350000000     0.822033333333     0          
T        Si     0.153300000000     0.403200000000     0.736200000000     0          
O        O      0.169950000000     0.432200000000     0.936800000000     0          
O        O      0.110500000000     0.405000000000     0.939666666667     0          
O        O      0.158750000000     0.425300000000     0.687400000000     0          
O        O      0.079950000000     0.399600000000     0.783100000000     0          
O        O      0.126450000000     0.438200000000     0.750766666667     0          
O        O      0.135800000000     0.432950000000     0.844600000000     0          
O        O      0.201100000000     0.065550000000     0.870400000000     0          
O        O      0.188150000000     0.404850000000     0.779733333333     0          
O        O      0.250000000000     0.422900000000     0.833333333333     0          
T        Si     0.142650000000     0.440500000000     0.964400000000     0          
T        Si     0.108650000000     0.442750000000     0.792233333333     0          
T        Si     0.169500000000     0.087500000000     0.883966666667     0          
T        Si     0.211800000000     0.440650000000     0.822033333333     0          
T        Si     0.153300000000     0.096800000000     0.736200000000     0          
O        O      0.330050000000     0.432200000000     0.729866666667     0          
O        O      0.389500000000     0.405000000000     0.727000000000     0          
O        O      0.341250000000     0.425300000000     0.979266666667     0          
O        O      0.420050000000     0.399600000000     0.883566666667     0          
O        O      0.373550000000     0.438200000000     0.915900000000     0          
O        O      0.364200000000     0.432950000000     0.822066666667     0          
O        O      0.298900000000     0.065550000000     0.796266666667     0          
O        O      0.311850000000     0.404850000000     0.886933333333     0          
T        Si     0.357350000000     0.440500000000     0.702266666667     0          
T        Si     0.391350000000     0.442750000000     0.874433333333     0          
T        Si     0.330500000000     0.087500000000     0.782700000000     0          
T        Si     0.288200000000     0.440650000000     0.844633333333     0          
T        Si     0.346700000000     0.096800000000     0.930466666667     0          
O        O      0.080050000000     0.317800000000     0.729866666667     0          
O        O      0.118750000000     0.250000000000     0.706500000000     0          
O        O      0.139500000000     0.345000000000     0.727000000000     0          
O        O      0.091250000000     0.324700000000     0.979266666667     0          
O        O      0.170050000000     0.350400000000     0.883566666667     0          
O        O      0.123550000000     0.311800000000     0.915900000000     0          
O        O      0.156400000000     0.250000000000     0.875900000000     0          
O        O      0.114200000000     0.317050000000     0.822066666667     0          
O        O      0.048900000000     0.184450000000     0.796266666667     0          
O        O      0.061850000000     0.345150000000     0.886933333333     0          
O        O      0.000000000000     0.327100000000     0.833333333333     0          
O        O      0.042150000000     0.250000000000     0.861733333333     0          
T        Si     0.107350000000     0.309500000000     0.702266666667     0          
T        Si     0.141350000000     0.307250000000     0.874433333333     0          
T        Si     0.080500000000     0.162500000000     0.782700000000     0          
T        Si     0.038200000000     0.309350000000     0.844633333333     0          
T        Si     0.096700000000     0.153200000000     0.930466666667     0          
O        O      0.419950000000     0.317800000000     0.936800000000     0          
O        O      0.381250000000     0.250000000000     0.960166666667     0          
O        O      0.360500000000     0.345000000000     0.939666666667     0          
O        O      0.408750000000     0.324700000000     0.687400000000     0          
O        O      0.329950000000     0.350400000000     0.783100000000     0          
O        O      0.376450000000     0.311800000000     0.750766666667     0          
O        O      0.343600000000     0.250000000000     0.790766666667     0          
O        O      0.385800000000     0.317050000000     0.844600000000     0          
O        O      0.451100000000     0.184450000000     0.870400000000     0          
O        O      0.438150000000     0.345150000000     0.779733333333     0          
O        O      0.457850000000     0.250000000000     0.804933333333     0          
T        Si     0.392650000000     0.309500000000     0.964400000000     0          
T        Si     0.358650000000     0.307250000000     0.792233333333     0          
T        Si     0.419500000000     0.162500000000     0.883966666667     0          
T        Si     0.461800000000     0.309350000000     0.822033333333     0          
T        Si     0.403300000000     0.153200000000     0.736200000000     0          
O        O      0.419950000000     0.182200000000     0.936800000000     0          
O        O      0.360500000000     0.155000000000     0.939666666667     0          
O        O      0.408750000000     0.175300000000     0.687400000000     0          
O        O      0.329950000000     0.149600000000     0.783100000000     0          
O        O      0.376450000000     0.188200000000     0.750766666667     0          
O        O      0.385800000000     0.182950000000     0.844600000000     0          
O        O      0.451100000000     0.315550000000     0.870400000000     0          
O        O      0.438150000000     0.154850000000     0.779733333333     0          
O        O      0.000000000000     0.172900000000     0.833333333333     0          
T        Si     0.392650000000     0.190500000000     0.964400000000     0          
T        Si     0.358650000000     0.192750000000     0.792233333333     0          
T        Si     0.419500000000     0.337500000000     0.883966666667     0          
T        Si     0.461800000000     0.190650000000     0.822033333333     0          
T        Si     0.403300000000     0.346800000000     0.736200000000     0          
O        O      0.080050000000     0.182200000000     0.729866666667     0          
O        O      0.139500000000     0.155000000000     0.727000000000     0          
O        O      0.091250000000     0.175300000000     0.979266666667     0          
O        O      0.170050000000     0.149600000000     0.883566666667     0          
O        O      0.123550000000     0.188200000000     0.915900000000     0          
O        O      0.114200000000     0.182950000000     0.822066666667     0          
O        O      0.048900000000     0.315550000000     0.796266666667     0          
O        O      0.061850000000     0.154850000000     0.886933333333     0          
T        Si     0.107350000000     0.190500000000     0.702266666667     0          
T        Si     0.141350000000     0.192750000000     0.874433333333     0          
T        Si     0.080500000000     0.337500000000     0.782700000000     0          
T        Si     0.038200000000     0.190650000000     0.844633333333     0          
T        Si     0.096700000000     0.346800000000     0.930466666667     0          
O        O      0.330050000000     0.567800000000     0.063200000000     0          
O        O      0.368750000000     0.500000000000     0.039833333333     0          
O        O      0.389500000000     0.595000000000     0.060333333333     0          
O        O      0.341250000000     0.574700000000     0.312600000000     0          
O        O      0.420050000000     0.600400000000     0.216900000000     0          
O        O      0.373550000000     0.561800000000     0.249233333333     0          
O        O      0.406400000000     0.500000000000     0.209233333333     0          
O        O      0.364200000000     0.567050000000     0.155400000000     0          
O        O      0.298900000000     0.934450000000     0.129600000000     0          
O        O      0.311850000000     0.595150000000     0.220266666667     0          
O        O      0.250000000000     0.577100000000     0.166666666667     0          
O        O      0.292150000000     0.500000000000     0.195066666667     0          
T        Si     0.357350000000     0.559500000000     0.035600000000     0          
T        Si     0.391350000000     0.557250000000     0.207766666667     0          
T        Si     0.330500000000     0.912500000000     0.116033333333     0          
T        Si     0.288200000000     0.559350000000     0.177966666667     0          
T        Si     0.346700000000     0.903200000000     0.263800000000     0          
O        O      0.169950000000     0.567800000000     0.270133333333     0          
O        O      0.131250000000     0.500000000000     0.293500000000     0          
O        O      0.110500000000     0.595000000000     0.273000000000     0          
O        O      0.158750000000     0.574700000000     0.020733333333     0          
O        O      0.079950000000     0.600400000000     0.116433333333     0          
O        O      0.126450000000     0.561800000000     0.084100000000     0          
O        O      0.093600000000     0.500000000000     0.124100000000     0          
O        O      0.135800000000     0.567050000000     0.177933333333     0          
O        O      0.201100000000     0.934450000000     0.203733333333     0          
O        O      0.188150000000     0.595150000000     0.113066666667     0          
O        O      0.207850000000     0.500000000000     0.138266666667     0          
T        Si     0.142650000000     0.559500000000     0.297733333333     0          
T        Si     0.108650000000     0.557250000000     0.125566666667     0          
T        Si     0.169500000000     0.912500000000     0.217300000000     0          
T        Si     0.211800000000     0.559350000000     0.155366666667     0          
T        Si     0.153300000000     0.903200000000     0.069533333333     0          
O        O      0.169950000000     0.932200000000     0.270133333333     0          
O        O      0.110500000000     0.905000000000     0.273000000000     0          
O        O      0.158750000000     0.925300000000     0.020733333333     0          
O        O      0.079950000000     0.899600000000     0.116433333333     0          
O        O      0.126450000000     0.938200000000     0.084100000000     0          
O        O      0.135800000000     0.932950000000     0.177933333333     0          
O        O      0.201100000000     0.565550000000     0.203733333333     0          
O        O      0.188150000000     0.904850000000     0.113066666667     0          
O        O      0.250000000000     0.922900000000     0.166666666667     0          
T        Si     0.142650000000     0.940500000000     0.297733333333     0          
T        Si     0.108650000000     0.942750000000     0.125566666667     0          
T        Si     0.169500000000     0.587500000000     0.217300000000     0          
T        Si     0.211800000000     0.940650000000     0.155366666667     0          
T        Si     0.153300000000     0.596800000000     0.069533333333     0          
O        O      0.330050000000     0.932200000000     0.063200000000     0          
O        O      0.389500000000     0.905000000000     0.060333333333     0          
O        O      0.341250000000     0.925300000000     0.312600000000     0          
O        O      0.420050000000     0.899600000000     0.216900000000     0          
O        O      0.373550000000     0.938200000000     0.249233333333     0          
O        O      0.364200000000     0.932950000000     0.155400000000     0          
O        O      0.298900000000     0.565550000000     0.129600000000     0          
O        O      0.311850000000     0.904850000000     0.220266666667     0          
T        Si     0.357350000000     0.940500000000     0.035600000000     0          
T        Si     0.391350000000     0.942750000000     0.207766666667     0          
T        Si     0.330500000000     0.587500000000     0.116033333333     0          
T        Si     0.288200000000     0.940650000000     0.177966666667     0          
T        Si     0.346700000000     0.596800000000     0.263800000000     0          
O        O      0.080050000000     0.817800000000     0.063200000000     0          
O        O      0.118750000000     0.750000000000     0.039833333333     0          
O        O      0.139500000000     0.845000000000     0.060333333333     0          
O        O      0.091250000000     0.824700000000     0.312600000000     0          
O        O      0.170050000000     0.850400000000     0.216900000000     0          
O        O      0.123550000000     0.811800000000     0.249233333333     0          
O        O      0.156400000000     0.750000000000     0.209233333333     0          
O        O      0.114200000000     0.817050000000     0.155400000000     0          
O        O      0.048900000000     0.684450000000     0.129600000000     0          
O        O      0.061850000000     0.845150000000     0.220266666667     0          
O        O      0.000000000000     0.827100000000     0.166666666667     0          
O        O      0.042150000000     0.750000000000     0.195066666667     0          
T        Si     0.107350000000     0.809500000000     0.035600000000     0          
T        Si     0.141350000000     0.807250000000     0.207766666667     0          
T        Si     0.080500000000     0.662500000000     0.116033333333     0          
T        Si     0.038200000000     0.809350000000     0.177966666667     0          
T        Si     0.096700000000     0.653200000000     0.263800000000     0          
O        O      0.419950000000     0.817800000000     0.270133333333     0          
O        O      0.381250000000     0.750000000000     0.293500000000     0          
O        O      0.360500000000     0.845000000000     0.273000000000     0          
O        O      0.408750000000     0.824700000000     0.020733333333     0          
O        O      0.329950000000     0.850400000000     0.116433333333     0          
O        O      0.376450000000     0.811800000000     0.084100000000     0          
O        O      0.343600000000     0.750000000000     0.124100000000     0          
O        O      0.385800000000     0.817050000000     0.177933333333     0          
O        O      0.451100000000     0.684450000000     0.203733333333     0          
O        O      0.438150000000     0.845150000000     0.113066666667     0          
O        O      0.457850000000     0.750000000000     0.138266666667     0          
T        Si     0.392650000000     0.809500000000     0.297733333333     0          
T        Si     0.358650000000     0.807250000000     0.125566666667     0          
T        Si     0.419500000000     0.662500000000     0.217300000000     0          
T        Si     0.461800000000     0.809350000000     0.155366666667     0          
T        Si     0.403300000000     0.653200000000     0.069533333333     0          
O        O      0.419950000000     0.682200000000     0.270133333333     0          
O        O      0.360500000000     0.655000000000     0.273000000000     0          
O        O      0.408750000000     0.675300000000     0.020733333333     0          
O        O      0.329950000000     0.649600000000     0.116433333333     0          
O        O      0.376450000000     0.688200000000     0.084100000000     0          
O        O      0.385800000000     0.682950000000     0.177933333333     0          
O        O      0.451100000000     0.815550000000     0.203733333333     0          
O        O      0.438150000000     0.654850000000     0.113066666667     0          
O        O      0.000000000000     0.672900000000     0.166666666667     0          
T        Si     0.392650000000     0.690500000000     0.297733333333     0          
T        Si     0.358650000000     0.692750000000     0.125566666667     0          
T        Si     0.419500000000     0.837500000000     0.217300000000     0          
T        Si     0.461800000000     0.690650000000     0.155366666667     0          
T        Si     0.403300000000     0.846800000000     0.069533333333     0          
O        O      0.080050000000     0.682200000000     0.063200000000     0          
O        O      0.139500000000     0.655000000000     0.060333333333     0          
O        O      0.091250000000     0.675300000000     0.312600000000     0          
O        O      0.170050000000     0.649600000000     0.216900000000     0          
O        O      0.123550000000     0.688200000000     0.249233333333     0          
O        O      0.114200000000     0.682950000000     0.155400000000     0          
O        O      0.048900000000     0.815550000000     0.129600000000     0          
O        O      0.061850000000     0.654850000000     0.220266666667     0          
T        Si     0.107350000000     0.690500000000     0.035600000000     0          
T        Si     0.141350000000     0.692750000000     0.207766666667     0          
T        Si     0.080500000000     0.837500000000     0.116033333333     0          
T        Si     0.038200000000     0.690650000000     0.177966666667     0          
T        Si     0.096700000000     0.846800000000     0.263800000000     0          
O        O      0.330050000000     0.567800000000     0.396533333333     0          
O        O      0.368750000000     0.500000000000     0.373166666667     0          
O        O      0.389500000000     0.595000000000     0.393666666667     0          
O        O      0.341250000000     0.574700000000     0.645933333333     0          
O        O      0.420050000000     0.600400000000     0.550233333333     0          
O        O      0.373550000000     0.561800000000     0.582566666667     0          
O        O      0.406400000000     0.500000000000     0.542566666667     0          
O        O      0.364200000000     0.567050000000     0.488733333333     0          
O        O      0.298900000000     0.934450000000     0.462933333333     0          
O        O      0.311850000000     0.595150000000     0.553600000000     0          
O        O      0.250000000000     0.577100000000     0.500000000000     0          
O        O      0.292150000000     0.500000000000     0.528400000000     0          
T        Si     0.357350000000     0.559500000000     0.368933333333     0          
T        Si     0.391350000000     0.557250000000     0.541100000000     0          
T        Si     0.330500000000     0.912500000000     0.449366666667     0          
T        Si     0.288200000000     0.559350000000     0.511300000000     0          
T        Si     0.346700000000     0.903200000000     0.597133333333     0          
O        O      0.169950000000     0.567800000000     0.603466666667     0          
O        O      0.131250000000     0.500000000000     0.626833333333     0          
O        O      0.110500000000     0.595000000000     0.606333333333     0          
O        O      0.158750000000     0.574700000000     0.354066666667     0          
O        O      0.079950000000     0.600400000000     0.449766666667     0          
O        O      0.126450000000     0.561800000000     0.417433333333     0          
O        O      0.093600000000     0.500000000000     0.457433333333     0          
O        O      0.135800000000     0.567050000000     0.511266666667     0          
O        O      0.201100000000     0.934450000000     0.537066666667     0          
O        O      0.188150000000     0.595150000000     0.446400000000     0          
O        O      0.207850000000     0.500000000000     0.471600000000     0          
T        Si     0.142650000000     0.559500000000     0.631066666667     0          
T        Si     0.108650000000     0.557250000000     0.458900000000     0          
T        Si     0.169500000000     0.912500000000     0.550633333333     0          
T        Si     0.211800000000     0.559350000000     0.488700000000     0          
T        Si     0.153300000000     0.903200000000     0.402866666667     0          
O        O      0.169950000000     0.932200000000     0.603466666667     0          
O        O      0.110500000000     0.905000000000     0.606333333333     0          
O        O      0.158750000000     0.925300000000     0.354066666667     0          
O        O      0.079950000000     0.899600000000     0.449766666667     0          
O        O      0.126450000000     0.938200000000     0.417433333333     0          
O        O      0.135800000000     0.932950000000     0.511266666667     0          
O        O      0.201100000000     0.565550000000     0.537066666667     0          
O        O      0.188150000000     0.904850000000     0.446400000000     0          
O        O      0.250000000000     0.922900000000     0.500000000000     0          
T        Si     0.142650000000     0.940500000000     0.631066666667     0          
T        Si     0.108650000000     0.942750000000     0.458900000000     0          
T        Si     0.169500000000     0.587500000000     0.550633333333     0          
T        Si     0.211800000000     0.940650000000     0.488700000000     0          
T        Si     0.153300000000     0.596800000000     0.402866666667     0          
O        O      0.330050000000     0.932200000000     0.396533333333     0          
O        O      0.389500000000     0.905000000000     0.393666666667     0          
O        O      0.341250000000     0.925300000000     0.645933333333     0          
O        O      0.420050000000     0.899600000000     0.550233333333     0          
O        O      0.373550000000     0.938200000000     0.582566666667     0          
O        O      0.364200000000     0.932950000000     0.488733333333     0          
O        O      0.298900000000     0.565550000000     0.462933333333     0          
O        O      0.311850000000     0.904850000000     0.553600000000     0          
T        Si     0.357350000000     0.940500000000     0.368933333333     0          
T        Si     0.391350000000     0.942750000000     0.541100000000     0          
T        Si     0.330500000000     0.587500000000     0.449366666667     0          
T        Si     0.288200000000     0.940650000000     0.511300000000     0          
T        Si     0.346700000000     0.596800000000     0.597133333333     0          
O        O      0.080050000000     0.817800000000     0.396533333333     0          
O        O      0.118750000000     0.750000000000     0.373166666667     0          
O        O      0.139500000000     0.845000000000     0.393666666667     0          
O        O      0.091250000000     0.824700000000     0.645933333333     0          
O        O      0.170050000000     0.850400000000     0.550233333333     0          
O        O      0.123550000000     0.811800000000     0.582566666667     0          
O        O      0.156400000000     0.750000000000     0.542566666667     0          
O        O      0.114200000000     0.817050000000     0.488733333333     0          
O        O      0.048900000000     0.684450000000     0.462933333333     0          
O        O      0.061850000000     0.845150000000     0.553600000000     0          
O        O      0.000000000000     0.827100000000     0.500000000000     0          
O        O      0.042150000000     0.750000000000     0.528400000000     0          
T        Si     0.107350000000     0.809500000000     0.368933333333     0          
T        Si     0.141350000000     0.807250000000     0.541100000000     0          
T        Si     0.080500000000     0.662500000000     0.449366666667     0          
T        Si     0.038200000000     0.809350000000     0.511300000000     0          
T        Si     0.096700000000     0.653200000000     0.597133333333     0          
O        O      0.419950000000     0.817800000000     0.603466666667     0          
O        O      0.381250000000     0.750000000000     0.626833333333     0          
O        O      0.360500000000     0.845000000000     0.606333333333     0          
O        O      0.408750000000     0.824700000000     0.354066666667     0          
O        O      0.329950000000     0.850400000000     0.449766666667     0          
O        O      0.376450000000     0.811800000000     0.417433333333     0          
O        O      0.343600000000     0.750000000000     0.457433333333     0          
O        O      0.385800000000     0.817050000000     0.511266666667     0          
O        O      0.451100000000     0.684450000000     0.537066666667     0          
O        O      0.438150000000     0.845150000000     0.446400000000     0          
O        O      0.457850000000     0.750000000000     0.471600000000     0          
T        Si     0.392650000000     0.809500000000     0.631066666667     0          
T        Si     0.358650000000     0.807250000000     0.458900000000     0          
T        Si     0.419500000000     0.662500000000     0.550633333333     0          
T        Si     0.461800000000     0.809350000000     0.488700000000     0          
T        Si     0.403300000000     0.653200000000     0.402866666667     0          
O        O      0.419950000000     0.682200000000     0.603466666667     0          
O        O      0.360500000000     0.655000000000     0.606333333333     0          
O        O      0.408750000000     0.675300000000     0.354066666667     0          
O        O      0.329950000000     0.649600000000     0.449766666667     0          
O        O      0.376450000000     0.688200000000     0.417433333333     0          
O        O      0.385800000000     0.682950000000     0.511266666667     0          
O        O      0.451100000000     0.815550000000     0.537066666667     0          
O        O      0.438150000000     0.654850000000     0.446400000000     0          
O        O      0.000000000000     0.672900000000     0.500000000000     0          
T        Si     0.392650000000     0.690500000000     0.631066666667     0          
T        Si     0.358650000000     0.692750000000     0.458900000000     0          
T        Si     0.419500000000     0.837500000000     0.550633333333     0          
T        Si     0.461800000000     0.690650000000     0.488700000000     0          
T        Si     0.403300000000     0.846800000000     0.402866666667     0          
O        O      0.080050000000     0.682200000000     0.396533333333     0          
O        O      0.139500000000     0.655000000000     0.393666666667     0          
O        O      0.091250000000     0.675300000000     0.645933333333     0          
O        O      0.170050000000     0.649600000000     0.550233333333     0          
O        O      0.123550000000     0.688200000000     0.582566666667     0          
O        O      0.114200000000     0.682950000000     0.488733333333     0          
O        O      0.048900000000     0.815550000000     0.462933333333     0          
O        O      0.061850000000     0.654850000000     0.553600000000     0          
T        Si     0.107350000000     0.690500000000     0.368933333333     0          
T        Si     0.141350000000     0.692750000000     0.541100000000     0          
T        Si     0.080500000000     0.837500000000     0.449366666667     0          
T        Si     0.038200000000     0.690650000000     0.511300000000     0          
T        Si     0.096700000000     0.846800000000     0.597133333333     0          
O        O      0.330050000000     0.567800000000     0.729866666667     0          
O        O      0.368750000000     0.500000000000     0.706500000000     0          
O        O      0.389500000000     0.595000000000     0.727000000000     0          
O        O      0.341250000000     0.574700000000     0.979266666667     0          
O        O      0.420050000000     0.600400000000     0.883566666667     0          
O        O      0.373550000000     0.561800000000     0.915900000000     0          
O        O      0.406400000000     0.500000000000     0.875900000000     0          
O        O      0.364200000000     0.567050000000     0.822066666667     0          
O        O      0.298900000000     0.934450000000     0.796266666667     0          
O        O      0.311850000000     0.595150000000     0.886933333333     0          
O        O      0.250000000000     0.577100000000     0.833333333333     0          
O        O      0.292150000000     0.500000000000     0.861733333333     0          
T        Si     0.357350000000     0.559500000000     0.702266666667     0          
T        Si     0.391350000000     0.557250000000     0.874433333333     0          
T        Si     0.330500000000     0.912500000000     0.782700000000     0          
T        Si     0.288200000000     0.559350000000     0.844633333333     0          
T        Si     0.346700000000     0.903200000000     0.930466666667     0          
O        O      0.169950000000     0.567800000000     0.936800000000     0          
O        O      0.131250000000     0.500000000000     0.960166666667     0          
O        O      0.110500000000     0.595000000000     0.939666666667     0          
O        O      0.158750000000     0.574700000000     0.687400000000     0          
O        O      0.079950000000     0.600400000000     0.783100000000     0          
O        O      0.126450000000     0.561800000000     0.750766666667     0          
O        O      0.093600000000     0.500000000000     0.790766666667     0          
O        O      0.135800000000     0.567050000000     0.844600000000     0          
O        O      0.201100000000     0.934450000000     0.870400000000     0          
O        O      0.188150000000     0.595150000000     0.779733333333     0          
O        O      0.207850000000     0.500000000000     0.804933333333     0          
T        Si     0.142650000000     0.559500000000     0.964400000000     0          
T        Si     0.108650000000     0.557250000000     0.792233333333     0          
T        Si     0.169500000000     0.912500000000     0.883966666667     0          
T        Si     0.211800000000     0.559350000000     0.822033333333     0          
T        Si     0.153300000000     0.903200000000     0.736200000000     0          
O        O      0.169950000000     0.932200000000     0.936800000000     0          
O        O      0.110500000000     0.905000000000     0.939666666667     0          
O        O      0.158750000000     0.925300000000     0.687400000000     0          
O        O      0.079950000000     0.899600000000     0.783100000000     0          
O        O      0.126450000000     0.938200000000     0.750766666667     0          
O        O      0.135800000000     0.932950000000     0.844600000000     0          
O        O      0.201100000000     0.565550000000     0.870400000000     0          
O        O      0.188150000000     0.904850000000     0.779733333333     0          
O        O      0.250000000000     0.922900000000     0.833333333333     0          
T        Si     0.142650000000     0.940500000000     0.964400000000     0          
T        Si     0.108650000000     0.942750000000     0.792233333333     0          
T        Si     0.169500000000     0.587500000000     0.883966666667     0          
T        Si     0.211800000000     0.940650000000     0.822033333333     0          
T        Si     0.153300000000     0.596800000000     0.736200000000     0          
O        O      0.330050000000     0.932200000000     0.729866666667     0          
O        O      0.389500000000     0.905000000000     0.727000000000     0          
O        O      0.341250000000     0.925300000000     0.979266666667     0          
O        O      0.420050000000     0.899600000000     0.883566666667     0          
O        O      0.373550000000     0.938200000000     0.915900000000     0          
O        O      0.364200000000     0.932950000000     0.822066666667     0          
O        O      0.298900000000     0.565550000000     0.796266666667     0          
O        O      0.311850000000     0.904850000000     0.886933333333     0          
T        Si     0.357350000000     0.940500000000     0.702266666667     0          
T        Si     0.391350000000     0.942750000000     0.874433333333     0          
T        Si     0.330500000000     0.587500000000     0.782700000000     0          
T        Si     0.288200000000     0.940650000000     0.844633333333     0          
T        Si     0.346700000000     0.596800000000     0.930466666667     0          
O        O      0.080050000000     0.817800000000     0.729866666667     0          
O        O      0.118750000000     0.750000000000     0.706500000000     0          
O        O      0.139500000000     0.845000000000     0.727000000000     0          
O        O      0.091250000000     0.824700000000     0.979266666667     0          
O        O      0.170050000000     0.850400000000     0.883566666667     0          
O        O      0.123550000000     0.811800000000     0.915900000000     0          
O        O      0.156400000000     0.750000000000     0.875900000000     0          
O        O      0.114200000000     0.817050000000     0.822066666667     0          
O        O      0.048900000000     0.684450000000     0.796266666667     0          
O        O      0.061850000000     0.845150000000     0.886933333333     0          
O        O      0.000000000000     0.827100000000     0.833333333333     0          
O        O      0.042150000000     0.750000000000     0.861733333333     0          
T        Si     0.107350000000     0.809500000000     0.702266666667     0          
T        Si     0.141350000000     0.807250000000     0.874433333333     0          
T        Si     0.080500000000     0.662500000000     0.782700000000     0          
T        Si     0.038200000000     0.809350000000     0.844633333333     0          
T        Si     0.096700000000     0.653200000000     0.930466666667     0          
O        O      0.419950000000     0.817800000000     0.936800000000     0          
O        O      0.381250000000     0.750000000000     0.960166666667     0          
O        O      0.360500000000     0.845000000000     0.939666666667     0          
O        O      0.408750000000     0.824700000000     0.687400000000     0          
O        O      0.329950000000     0.850400000000     0.783100000000     0          
O        O      0.376450000000     0.811800000000     0.750766666667     0          
O        O      0.343600000000     0.750000000000     0.790766666667     0          
O        O      0.385800000000     0.817050000000     0.844600000000     0          
O        O      0.451100000000     0.684450000000     0.870400000000     0          
O        O      0.438150000000     0.845150000000     0.779733333333     0          
O        O      0.457850000000     0.750000000000     0.804933333333     0          
T        Si     0.392650000000     0.809500000000     0.964400000000     0          
T        Si     0.358650000000     0.807250000000     0.792233333333     0          
T        Si     0.419500000000     0.662500000000     0.883966666667     0          
T        Si     0.461800000000     0.809350000000     0.822033333333     0          
T        Si     0.403300000000     0.653200000000     0.736200000000     0          
O        O      0.419950000000     0.682200000000     0.936800000000     0          
O        O      0.360500000000     0.655000000000     0.939666666667     0          
O        O      0.408750000000     0.675300000000     0.687400000000     0          
O        O      0.329950000000     0.649600000000     0.783100000000     0          
O        O      0.376450000000     0.688200000000     0.750766666667     0          
O        O      0.385800000000     0.682950000000     0.844600000000     0          
O        O      0.451100000000     0.815550000000     0.870400000000     0          
O        O      0.438150000000     0.654850000000     0.779733333333     0          
O        O      0.000000000000     0.672900000000     0.833333333333     0          
T        Si     0.392650000000     0.690500000000     0.964400000000     0          
T        Si     0.358650000000     0.692750000000     0.792233333333     0          
T        Si     0.419500000000     0.837500000000     0.883966666667     0          
T        Si     0.461800000000     0.690650000000     0.822033333333     0          
T        Si     0.403300000000     0.846800000000     0.736200000000     0          
O        O      0.080050000000     0.682200000000     0.729866666667     0          
O        O      0.139500000000     0.655000000000     0.727000000000     0          
O        O      0.091250000000     0.675300000000     0.979266666667     0          
O        O      0.170050000000     0.649600000000     0.883566666667     0          
O        O      0.123550000000     0.688200000000     0.915900000000     0          
O        O      0.114200000000     0.682950000000     0.822066666667     0          
O        O      0.048900000000     0.815550000000     0.796266666667     0          
O        O      0.061850000000     0.654850000000     0.886933333333     0          
T        Si     0.107350000000     0.690500000000     0.702266666667     0          
T        Si     0.141350000000     0.692750000000     0.874433333333     0          
T        Si     0.080500000000     0.837500000000     0.782700000000     0          
T        Si     0.038200000000     0.690650000000     0.844633333333     0          
T        Si     0.096700000000     0.846800000000     0.930466666667     0          
O        O      0.830050000000     0.067800000000     0.063200000000     0          
O        O      0.868750000000     0.000000000000     0.039833333333     0          
O        O      0.889500000000     0.095000000000     0.060333333333     0          
O        O      0.841250000000     0.074700000000     0.312600000000     0          
O        O      0.920050000000     0.100400000000     0.216900000000     0          
O        O      0.873550000000     0.061800000000     0.249233333333     0          
O        O      0.906400000000     0.000000000000     0.209233333333     0          
O        O      0.864200000000     0.067050000000     0.155400000000     0          
O        O      0.798900000000     0.434450000000     0.129600000000     0          
O        O      0.811850000000     0.095150000000     0.220266666667     0          
O        O      0.750000000000     0.077100000000     0.166666666667     0          
O        O      0.792150000000     0.000000000000     0.195066666667     0          
T        Si     0.857350000000     0.059500000000     0.035600000000     0          
T        Si     0.891350000000     0.057250000000     0.207766666667     0          
T        Si     0.830500000000     0.412500000000     0.116033333333     0          
T        Si     0.788200000000     0.059350000000     0.177966666667     0          
T        Si     0.846700000000     0.403200000000     0.263800000000     0          
O        O      0.669950000000     0.067800000000     0.270133333333     0          
O        O      0.631250000000     0.000000000000     0.293500000000     0          
O        O      0.610500000000     0.095000000000     0.273000000000     0          
O        O      0.658750000000     0.074700000000     0.020733333333     0          
O        O      0.579950000000     0.100400000000     0.116433333333     0          
O        O      0.626450000000     0.061800000000     0.084100000000     0          
O        O      0.593600000000     0.000000000000     0.124100000000     0          
O        O      0.635800000000     0.067050000000     0.177933333333     0          
O        O      0.701100000000     0.434450000000     0.203733333333     0          
O        O      0.688150000000     0.095150000000     0.113066666667     0          
O        O      0.707850000000     0.000000000000     0.138266666667     0          
T        Si     0.642650000000     0.059500000000     0.297733333333     0          
T        Si     0.608650000000     0.057250000000     0.125566666667     0          
T        Si     0.669500000000     0.412500000000     0.217300000000     0          
T        Si     0.711800000000     0.059350000000     0.155366666667     0          
T        Si     0.653300000000     0.403200000000     0.069533333333     0          
O        O      0.669950000000     0.432200000000     0.270133333333     0          
O        O      0.610500000000     0.405000000000     0.273000000000     0          
O        O      0.658750000000     0.425300000000     0.020733333333     0          
O        O      0.579950000000     0.399600000000     0.116433333333     0          
O        O      0.626450000000     0.438200000000     0.084100000000     0          
O        O      0.635800000000     0.432950000000     0.177933333333     0          
O        O      0.701100000000     0.065550000000     0.203733333333     0          
O        O      0.688150000000     0.404850000000     0.113066666667     0          
O        O      0.750000000000     0.422900000000     0.166666666667     0          
T        Si     0.642650000000     0.440500000000     0.297733333333     0          
T        Si     0.608650000000     0.442750000000     0.125566666667     0          
T        Si     0.669500000000     0.087500000000     0.217300000000     0          
T        Si     0.711800000000     0.440650000000     0.155366666667     0          
T        Si     0.653300000000     0.096800000000     0.069533333333     0          
O        O      0.830050000000     0.432200000000     0.063200000000     0          
O        O      0.889500000000     0.405000000000     0.060333333333     0          
O        O      0.841250000000     0.425300000000     0.312600000000     0          
O        O      0.920050000000     0.399600000000     0.216900000000     0          
O        O      0.873550000000     0.438200000000     0.249233333333     0          
O        O      0.864200000000     0.432950000000     0.155400000000     0          
O        O      0.798900000000     0.065550000000     0.129600000000     0          
O        O      0.811850000000     0.404850000000     0.220266666667     0          
T        Si     0.857350000000     0.440500000000     0.035600000000     0          
T        Si     0.891350000000     0.442750000000     0.207766666667     0          
T        Si     0.830500000000     0.087500000000     0.116033333333     0          
T        Si     0.788200000000     0.440650000000     0.177966666667     0          
T        Si     0.846700000000     0.096800000000     0.263800000000     0          
O        O      0.580050000000     0.317800000000     0.063200000000     0          
O        O      0.618750000000     0.250000000000     0.039833333333     0          
O        O      0.639500000000     0.345000000000     0.060333333333     0          
O        O      0.591250000000     0.324700000000     0.312600000000     0          
O        O      0.670050000000     0.350400000000     0.216900000000     0          
O        O      0.623550000000     0.311800000000     0.249233333333     0          
O        O      0.656400000000     0.250000000000     0.209233333333     0          
O        O      0.614200000000     0.317050000000     0.155400000000     0          
O        O      0.548900000000     0.184450000000     0.129600000000     0          
O        O      0.561850000000     0.345150000000     0.220266666667     0          
O        O      0.500000000000     0.327100000000     0.166666666667     0          
O        O      0.542150000000     0.250000000000     0.195066666667     0          
T        Si     0.607350000000     0.309500000000     0.035600000000     0          
T        Si     0.641350000000     0.307250000000     0.207766666667     0          
T        Si     0.580500000000     0.162500000000     0.116033333333     0          
T        Si     0.538200000000     0.309350000000     0.177966666667     0          
T        Si     0.596700000000     0.153200000000     0.263800000000     0          
O        O      0.919950000000     0.317800000000     0.270133333333     0          
O        O      0.881250000000     0.250000000000     0.293500000000     0          
O        O      0.860500000000     0.345000000000     0.273000000000     0          
O        O      0.908750000000     0.324700000000     0.020733333333     0          
O        O      0.829950000000     0.350400000000     0.116433333333     0          
O        O      0.876450000000     0.311800000000     0.084100000000     0          
O        O      0.843600000000     0.250000000000     0.124100000000     0          
O        O      0.885800000000     0.317050000000     0.177933333333     0          
O        O      0.951100000000     0.184450000000     0.203733333333     0          
O        O      0.938150000000     0.345150000000     0.113066666667     0          
O        O      0.957850000000     0.250000000000     0.138266666667     0          
T        Si     0.892650000000     0.309500000000     0.297733333333     0          
T        Si     0.858650000000     0.307250000000     0.125566666667     0          
T        Si     0.919500000000     0.162500000000     0.217300000000     0          
T        Si     0.961800000000     0.309350000000     0.155366666667     0          
T        Si     0.903300000000     0.153200000000     0.069533333333     0          
O        O      0.919950000000     0.182200000000     0.270133333333     0          
O        O      0.860500000000     0.155000000000     0.273000000000     0          
O        O      0.908750000000     0.175300000000     0.020733333333     0          
O        O      0.829950000000     0.149600000000     0.116433333333     0          
O        O      0.876450000000     0.188200000000     0.084100000000     0          
O        O      0.885800000000     0.182950000000     0.177933333333     0          
O        O      0.951100000000     0.315550000000     0.203733333333     0          
O        O      0.938150000000     0.154850000000     0.113066666667     0          
O        O      0.500000000000     0.172900000000     0.166666666667     0          
T        Si     0.892650000000     0.190500000000     0.297733333333     0          
T        Si     0.858650000000     0.192750000000     0.125566666667     0          
T        Si     0.919500000000     0.337500000000     0.217300000000     0          
T        Si     0.961800000000     0.190650000000     0.155366666667     0          
T        Si     0.903300000000     0.346800000000     0.069533333333     0          
O        O      0.580050000000     0.182200000000     0.063200000000     0          
O        O      0.639500000000     0.155000000000     0.060333333333     0          
O        O      0.591250000000     0.175300000000     0.312600000000     0          
O        O      0.670050000000     0.149600000000     0.216900000000     0          
O        O      0.623550000000     0.188200000000     0.249233333333     0          
O        O      0.614200000000     0.182950000000     0.155400000000     0          
O        O      0.548900000000     0.315550000000     0.129600000000     0          
O        O      0.561850000000     0.154850000000     0.220266666667     0          
T        Si     0.607350000000     0.190500000000     0.035600000000     0          
T        Si     0.641350000000     0.192750000000     0.207766666667     0          
T        Si     0.580500000000     0.337500000000     0.116033333333     0          
T        Si     0.538200000000     0.190650000000     0.177966666667     0          
T        Si     0.596700000000     0.346800000000     0.263800000000     0          
O        O      0.830050000000     0.067800000000     0.396533333333     0          
O        O      0.868750000000     0.000000000000     0.373166666667     0          
O        O      0.889500000000     0.095000000000     0.393666666667     0          
O        O      0.841250000000     0.074700000000     0.645933333333     0          
O        O      0.920050000000     0.100400000000     0.550233333333     0          
O        O      0.873550000000     0.061800000000     0.582566666667     0          
O        O      0.906400000000     0.000000000000     0.542566666667     0          
O        O      0.864200000000     0.067050000000     0.488733333333     0          
O        O      0.798900000000     0.434450000000     0.462933333333     0          
O        O      0.811850000000     0.095150000000     0.553600000000     0          
O        O      0.750000000000     0.077100000000     0.500000000000     0          
O        O      0.792150000000     0.000000000000     0.528400000000     0          
T        Si     0.857350000000     0.059500000000     0.368933333333     0          
T        Si     0.891350000000     0.057250000000     0.541100000000     0          
T        Si     0.830500000000     0.412500000000     0.449366666667     0          
T        Si     0.788200000000     0.059350000000     0.511300000000     0          
T        Si     0.846700000000     0.403200000000     0.597133333333     0          
O        O      0.669950000000     0.067800000000     0.603466666667     0          
O        O      0.631250000000     0.000000000000     0.626833333333     0          
O        O      0.610500000000     0.095000000000     0.606333333333     0          
O        O      0.658750000000     0.074700000000     0.354066666667     0          
O        O      0.579950000000     0.100400000000     0.449766666667     0          
O        O      0.626450000000     0.061800000000     0.417433333333     0          
O        O      0.593600000000     0.000000000000     0.457433333333     0          
O        O      0.635800000000     0.067050000000     0.511266666667     0          
O        O      0.701100000000     0.434450000000     0.537066666667     0          
O        O      0.688150000000     0.095150000000     0.446400000000     0          
O        O      0.707850000000     0.000000000000     0.471600000000     0          
T        Si     0.642650000000     0.059500000000     0.631066666667     0          
T        Si     0.608650000000     0.057250000000     0.458900000000     0          
T        Si     0.669500000000     0.412500000000     0.550633333333     0          
T        Si     0.711800000000     0.059350000000     0.488700000000     0          
T        Si     0.653300000000     0.403200000000     0.402866666667     0          
O        O      0.669950000000     0.432200000000     0.603466666667     0          
O        O      0.610500000000     0.405000000000     0.606333333333     0          
O        O      0.658750000000     0.425300000000     0.354066666667     0          
O        O      0.579950000000     0.399600000000     0.449766666667     0          
O        O      0.626450000000     0.438200000000     0.417433333333     0          
O        O      0.635800000000     0.432950000000     0.511266666667     0          
O        O      0.701100000000     0.065550000000     0.537066666667     0          
O        O      0.688150000000     0.404850000000     0.446400000000     0          
O        O      0.750000000000     0.422900000000     0.500000000000     0          
T        Si     0.642650000000     0.440500000000     0.631066666667     0          
T        Si     0.608650000000     0.442750000000     0.458900000000     0          
T        Si     0.669500000000     0.087500000000     0.550633333333     0          
T        Si     0.711800000000     0.440650000000     0.488700000000     0          
T        Si     0.653300000000     0.096800000000     0.402866666667     0          
O        O      0.830050000000     0.432200000000     0.396533333333     0          
O        O      0.889500000000     0.405000000000     0.393666666667     0          
O        O      0.841250000000     0.425300000000     0.645933333333     0          
O        O      0.920050000000     0.399600000000     0.550233333333     0          
O        O      0.873550000000     0.438200000000     0.582566666667     0          
O        O      0.864200000000     0.432950000000     0.488733333333     0          
O        O      0.798900000000     0.065550000000     0.462933333333     0          
O        O      0.811850000000     0.404850000000     0.553600000000     0          
T        Si     0.857350000000     0.440500000000     0.368933333333     0          
T        Si     0.891350000000     0.442750000000     0.541100000000     0          
T        Si     0.830500000000     0.087500000000     0.449366666667     0          
T        Si     0.788200000000     0.440650000000     0.511300000000     0          
T        Si     0.846700000000     0.096800000000     0.597133333333     0          
O        O      0.580050000000     0.317800000000     0.396533333333     0          
O        O      0.618750000000     0.250000000000     0.373166666667     0          
O        O      0.639500000000     0.345000000000     0.393666666667     0          
O        O      0.591250000000     0.324700000000     0.645933333333     0          
O        O      0.670050000000     0.350400000000     0.550233333333     0          
O        O      0.623550000000     0.311800000000     0.582566666667     0          
O        O      0.656400000000     0.250000000000     0.542566666667     0          
O        O      0.614200000000     0.317050000000     0.488733333333     0          
O        O      0.548900000000     0.184450000000     0.462933333333     0          
O        O      0.561850000000     0.345150000000     0.553600000000     0          
O        O      0.500000000000     0.327100000000     0.500000000000     0          
O        O      0.542150000000     0.250000000000     0.528400000000     0          
T        Si     0.607350000000     0.309500000000     0.368933333333     0          
T        Si     0.641350000000     0.307250000000     0.541100000000     0          
T        Si     0.580500000000     0.162500000000     0.449366666667     0          
T        Si     0.538200000000     0.309350000000     0.511300000000     0          
T        Si     0.596700000000     0.153200000000     0.597133333333     0          
O        O      0.919950000000     0.317800000000     0.603466666667     0          
O        O      0.881250000000     0.250000000000     0.626833333333     0          
O        O      0.860500000000     0.345000000000     0.606333333333     0          
O        O      0.908750000000     0.324700000000     0.354066666667     0          
O        O      0.829950000000     0.350400000000     0.449766666667     0          
O        O      0.876450000000     0.311800000000     0.417433333333     0          
O        O      0.843600000000     0.250000000000     0.457433333333     0          
O        O      0.885800000000     0.317050000000     0.511266666667     0          
O        O      0.951100000000     0.184450000000     0.537066666667     0          
O        O      0.938150000000     0.345150000000     0.446400000000     0          
O        O      0.957850000000     0.250000000000     0.471600000000     0          
T        Si     0.892650000000     0.309500000000     0.631066666667     0          
T        Si     0.858650000000     0.307250000000     0.458900000000     0          
T        Si     0.919500000000     0.162500000000     0.550633333333     0          
T        Si     0.961800000000     0.309350000000     0.488700000000     0          
T        Si     0.903300000000     0.153200000000     0.402866666667     0          
O        O      0.919950000000     0.182200000000     0.603466666667     0          
O        O      0.860500000000     0.155000000000     0.606333333333     0          
O        O      0.908750000000     0.175300000000     0.354066666667     0          
O        O      0.829950000000     0.149600000000     0.449766666667     0          
O        O      0.876450000000     0.188200000000     0.417433333333     0          
O        O      0.885800000000     0.182950000000     0.511266666667     0          
O        O      0.951100000000     0.315550000000     0.537066666667     0          
O        O      0.938150000000     0.154850000000     0.446400000000     0          
O        O      0.500000000000     0.172900000000     0.500000000000     0          
T        Si     0.892650000000     0.190500000000     0.631066666667     0          
T        Si     0.858650000000     0.192750000000     0.458900000000     0          
T        Si     0.919500000000     0.337500000000     0.550633333333     0          
T        Si     0.961800000000     0.190650000000     0.488700000000     0          
T        Si     0.903300000000     0.346800000000     0.402866666667     0          
O        O      0.580050000000     0.182200000000     0.396533333333     0          
O        O      0.639500000000     0.155000000000     0.393666666667     0          
O        O      0.591250000000     0.175300000000     0.645933333333     0          
O        O      0.670050000000     0.149600000000     0.550233333333     0          
O        O      0.623550000000     0.188200000000     0.582566666667     0          
O        O      0.614200000000     0.182950000000     0.488733333333     0          
O        O      0.548900000000     0.315550000000     0.462933333333     0          
O        O      0.561850000000     0.154850000000     0.553600000000     0          
T        Si     0.607350000000     0.190500000000     0.368933333333     0          
T        Si     0.641350000000     0.192750000000     0.541100000000     0          
T        Si     0.580500000000     0.337500000000     0.449366666667     0          
T        Si     0.538200000000     0.190650000000     0.511300000000     0          
T        Si     0.596700000000     0.346800000000     0.597133333333     0          
O        O      0.830050000000     0.067800000000     0.729866666667     0          
O        O      0.868750000000     0.000000000000     0.706500000000     0          
O        O      0.889500000000     0.095000000000     0.727000000000     0          
O        O      0.841250000000     0.074700000000     0.979266666667     0          
O        O      0.920050000000     0.100400000000     0.883566666667     0          
O        O      0.873550000000     0.061800000000     0.915900000000     0          
O        O      0.906400000000     0.000000000000     0.875900000000     0          
O        O      0.864200000000     0.067050000000     0.822066666667     0          
O        O      0.798900000000     0.434450000000     0.796266666667     0          
O        O      0.811850000000     0.095150000000     0.886933333333     0          
O        O      0.750000000000     0.077100000000     0.833333333333     0          
O        O      0.792150000000     0.000000000000     0.861733333333     0          
T        Si     0.857350000000     0.059500000000     0.702266666667     0          
T        Si     0.891350000000     0.057250000000     0.874433333333     0          
T        Si     0.830500000000     0.412500000000     0.782700000000     0          
T        Si     0.788200000000     0.059350000000     0.844633333333     0          
T        Si     0.846700000000     0.403200000000     0.930466666667     0          
O        O      0.669950000000     0.067800000000     0.936800000000     0          
O        O      0.631250000000     0.000000000000     0.960166666667     0          
O        O      0.610500000000     0.095000000000     0.939666666667     0          
O        O      0.658750000000     0.074700000000     0.687400000000     0          
O        O      0.579950000000     0.100400000000     0.783100000000     0          
O        O      0.626450000000     0.061800000000     0.750766666667     0          
O        O      0.593600000000     0.000000000000     0.790766666667     0          
O        O      0.635800000000     0.067050000000     0.844600000000     0          
O        O      0.701100000000     0.434450000000     0.870400000000     0          
O        O      0.688150000000     0.095150000000     0.779733333333     0          
O        O      0.707850000000     0.000000000000     0.804933333333     0          
T        Si     0.642650000000     0.059500000000     0.964400000000     0          
T        Si     0.608650000000     0.057250000000     0.792233333333     0          
T        Si     0.669500000000     0.412500000000     0.883966666667     0          
T        Si     0.711800000000     0.059350000000     0.822033333333     0          
T        Si     0.653300000000     0.403200000000     0.736200000000     0          
O        O      0.669950000000     0.432200000000     0.936800000000     0          
O        O      0.610500000000     0.405000000000     0.939666666667     0          
O        O      0.658750000000     0.425300000000     0.687400000000     0          
O        O      0.579950000000     0.399600000000     0.783100000000     0          
O        O      0.626450000000     0.438200000000     0.750766666667     0          
O        O      0.635800000000     0.432950000000     0.844600000000     0          
O        O      0.701100000000     0.065550000000     0.870400000000     0          
O        O      0.688150000000     0.404850000000     0.779733333333     0          
O        O      0.750000000000     0.422900000000     0.833333333333     0          
T        Si     0.642650000000     0.440500000000     0.964400000000     0          
T        Si     0.608650000000     0.442750000000     0.792233333333     0          
T        Si     0.669500000000     0.087500000000     0.883966666667     0          
T        Si     0.711800000000     0.440650000000     0.822033333333     0          
T        Si     0.653300000000     0.096800000000     0.736200000000     0          
O        O      0.830050000000     0.432200000000     0.729866666667     0          
O        O      0.889500000000     0.405000000000     0.727000000000     0          
O        O      0.841250000000     0.425300000000     0.979266666667     0          
O        O      0.920050000000     0.399600000000     0.883566666667     0          
O        O      0.873550000000     0.438200000000     0.915900000000     0          
O        O      0.864200000000     0.432950000000     0.822066666667     0          
O        O      0.798900000000     0.065550000000     0.796266666667     0          
O        O      0.811850000000     0.404850000000     0.886933333333     0          
T        Si     0.857350000000     0.440500000000     0.702266666667     0          
T        Si     0.891350000000     0.442750000000     0.874433333333     0          
T        Si     0.830500000000     0.087500000000     0.782700000000     0          
T        Si     0.788200000000     0.440650000000     0.844633333333     0          
T        Si     0.846700000000     0.096800000000     0.930466666667     0          
O        O      0.580050000000     0.317800000000     0.729866666667     0          
O        O      0.618750000000     0.250000000000     0.706500000000     0          
O        O      0.639500000000     0.345000000000     0.727000000000     0          
O        O      0.591250000000     0.324700000000     0.979266666667     0          
O        O      0.670050000000     0.350400000000     0.883566666667     0          
O        O      0.623550000000     0.311800000000     0.915900000000     0          
O        O      0.656400000000     0.250000000000     0.875900000000     0          
O        O      0.614200000000     0.317050000000     0.822066666667     0          
O        O      0.548900000000     0.184450000000     0.796266666667     0          
O        O      0.561850000000     0.345150000000     0.886933333333     0          
O        O      0.500000000000     0.327100000000     0.833333333333     0          
O        O      0.542150000000     0.250000000000     0.861733333333     0          
T        Si     0.607350000000     0.309500000000     0.702266666667     0          
T        Si     0.641350000000     0.307250000000     0.874433333333     0          
T        Si     0.580500000000     0.162500000000     0.782700000000     0          
T        Si     0.538200000000     0.309350000000     0.844633333333     0          
T        Si     0.596700000000     0.153200000000     0.930466666667     0          
O        O      0.919950000000     0.317800000000     0.936800000000     0          
O        O      0.881250000000     0.250000000000     0.960166666667     0          
O        O      0.860500000000     0.345000000000     0.939666666667     0          
O        O      0.908750000000     0.324700000000     0.687400000000     0          
O        O      0.829950000000     0.350400000000     0.783100000000     0          
O        O      0.876450000000     0.311800000000     0.750766666667     0          
O        O      0.843600000000     0.250000000000     0.790766666667     0          
O        O      0.885800000000     0.317050000000     0.844600000000     0          
O        O      0.951100000000     0.184450000000     0.870400000000     0          
O        O      0.938150000000     0.345150000000     0.779733333333     0          
O        O      0.957850000000     0.250000000000     0.804933333333     0          
T        Si     0.892650000000     0.309500000000     0.964400000000     0          
T        Si     0.858650000000     0.307250000000     0.792233333333     0          
T        Si     0.919500000000     0.162500000000     0.883966666667     0          
T        Si     0.961800000000     0.309350000000     0.822033333333     0          
T        Si     0.903300000000     0.153200000000     0.736200000000     0          
O        O      0.919950000000     0.182200000000     0.936800000000     0          
O        O      0.860500000000     0.155000000000     0.939666666667     0          
O        O      0.908750000000     0.175300000000     0.687400000000     0          
O        O      0.829950000000     0.149600000000     0.783100000000     0          
O        O      0.876450000000     0.188200000000     0.750766666667     0          
O        O      0.885800000000     0.182950000000     0.844600000000     0          
O        O      0.951100000000     0.315550000000     0.870400000000     0          
O        O      0.938150000000     0.154850000000     0.779733333333     0          
O        O      0.500000000000     0.172900000000     0.833333333333     0          
T        Si     0.892650000000     0.190500000000     0.964400000000     0          
T        Si     0.858650000000     0.192750000000     0.792233333333     0          
T        Si     0.919500000000     0.337500000000     0.883966666667     0          
T        Si     0.961800000000     0.190650000000     0.822033333333     0          
T        Si     0.903300000000     0.346800000000     0.736200000000     0          
O        O      0.580050000000     0.182200000000     0.729866666667     0          
O        O      0.639500000000     0.155000000000     0.727000000000     0          
O        O      0.591250000000     0.175300000000     0.979266666667     0          
O        O      0.670050000000     0.149600000000     0.883566666667     0          
O        O      0.623550000000     0.188200000000     0.915900000000     0          
O        O      0.614200000000     0.182950000000     0.822066666667     0          
O        O      0.548900000000     0.315550000000     0.796266666667     0          
O        O      0.561850000000     0.154850000000     0.886933333333     0          
T        Si     0.607350000000     0.190500000000     0.702266666667     0          
T        Si     0.641350000000     0.192750000000     0.874433333333     0          
T        Si     0.580500000000     0.337500000000     0.782700000000     0          
T        Si     0.538200000000     0.190650000000     0.844633333333     0          
T        Si     0.596700000000     0.346800000000     0.930466666667     0          
O        O      0.830050000000     0.567800000000     0.063200000000     0          
O        O      0.868750000000     0.500000000000     0.039833333333     0          
O        O      0.889500000000     0.595000000000     0.060333333333     0          
O        O      0.841250000000     0.574700000000     0.312600000000     0          
O        O      0.920050000000     0.600400000000     0.216900000000     0          
O        O      0.873550000000     0.561800000000     0.249233333333     0          
O        O      0.906400000000     0.500000000000     0.209233333333     0          
O        O      0.864200000000     0.567050000000     0.155400000000     0          
O        O      0.798900000000     0.934450000000     0.129600000000     0          
O        O      0.811850000000     0.595150000000     0.220266666667     0          
O        O      0.750000000000     0.577100000000     0.166666666667     0          
O        O      0.792150000000     0.500000000000     0.195066666667     0          
T        Si     0.857350000000     0.559500000000     0.035600000000     0          
T        Si     0.891350000000     0.557250000000     0.207766666667     0          
T        Si     0.830500000000     0.912500000000     0.116033333333     0          
T        Si     0.788200000000     0.559350000000     0.177966666667     0          
T        Si     0.846700000000     0.903200000000     0.263800000000     0          
O        O      0.669950000000     0.567800000000     0.270133333333     0          
O        O      0.631250000000     0.500000000000     0.293500000000     0          
O        O      0.610500000000     0.595000000000     0.273000000000     0          
O        O      0.658750000000     0.574700000000     0.020733333333     0          
O        O      0.579950000000     0.600400000000     0.116433333333     0          
O        O      0.626450000000     0.561800000000     0.084100000000     0          
O        O      0.593600000000     0.500000000000     0.124100000000     0          
O        O      0.635800000000     0.567050000000     0.177933333333     0          
O        O      0.701100000000     0.934450000000     0.203733333333     0          
O        O      0.688150000000     0.595150000000     0.113066666667     0          
O        O      0.707850000000     0.500000000000     0.138266666667     0          
T        Si     0.642650000000     0.559500000000     0.297733333333     0          
T        Si     0.608650000000     0.557250000000     0.125566666667     0          
T        Si     0.669500000000     0.912500000000     0.217300000000     0          
T        Si     0.711800000000     0.559350000000     0.155366666667     0          
T        Si     0.653300000000     0.903200000000     0.069533333333     0          
O        O      0.669950000000     0.932200000000     0.270133333333     0          
O        O      0.610500000000     0.905000000000     0.273000000000     0          
O        O      0.658750000000     0.925300000000     0.020733333333     0          
O        O      0.579950000000     0.899600000000     0.116433333333     0          
O        O      0.626450000000     0.938200000000     0.084100000000     0          
O        O      0.635800000000     0.932950000000     0.177933333333     0          
O        O      0.701100000000     0.565550000000     0.203733333333     0          
O        O      0.688150000000     0.904850000000     0.113066666667     0          
O        O      0.750000000000     0.922900000000     0.166666666667     0          
T        Si     0.642650000000     0.940500000000     0.297733333333     0          
T        Si     0.608650000000     0.942750000000     0.125566666667     0          
T        Si     0.669500000000     0.587500000000     0.217300000000     0          
T        Si     0.711800000000     0.940650000000     0.155366666667     0          
T        Si     0.653300000000     0.596800000000     0.069533333333     0          
O        O      0.830050000000     0.932200000000     0.063200000000     0          
O        O      0.889500000000     0.905000000000     0.060333333333     0          
O        O      0.841250000000     0.925300000000     0.312600000000     0          
O        O      0.920050000000     0.899600000000     0.216900000000     0          
O        O      0.873550000000     0.938200000000     0.249233333333     0          
O        O      0.864200000000     0.932950000000     0.155400000000     0          
O        O      0.798900000000     0.565550000000     0.129600000000     0          
O        O      0.811850000000     0.904850000000     0.220266666667     0          
T        Si     0.857350000000     0.940500000000     0.035600000000     0          
T        Si     0.891350000000     0.942750000000     0.207766666667     0          
T        Si     0.830500000000     0.587500000000     0.116033333333     0          
T        Si     0.788200000000     0.940650000000     0.177966666667     0          
T        Si     0.846700000000     0.596800000000     0.263800000000     0          
O        O      0.580050000000     0.817800000000     0.063200000000     0          
O        O      0.618750000000     0.750000000000     0.039833333333     0          
O        O      0.639500000000     0.845000000000     0.060333333333     0          
O        O      0.591250000000     0.824700000000     0.312600000000     0          
O        O      0.670050000000     0.850400000000     0.216900000000     0          
O        O      0.623550000000     0.811800000000     0.249233333333     0          
O        O      0.656400000000     0.750000000000     0.209233333333     0          
O        O      0.614200000000     0.817050000000     0.155400000000     0          
O        O      0.548900000000     0.684450000000     0.129600000000     0          
O        O      0.561850000000     0.845150000000     0.220266666667     0          
O        O      0.500000000000     0.827100000000     0.166666666667     0          
O        O      0.542150000000     0.750000000000     0.195066666667     0          
T        Si     0.607350000000     0.809500000000     0.035600000000     0          
T        Si     0.641350000000     0.807250000000     0.207766666667     0          
T        Si     0.580500000000     0.662500000000     0.116033333333     0          
T        Si     0.538200000000     0.809350000000     0.177966666667     0          
T        Si     0.596700000000     0.653200000000     0.263800000000     0          
O        O      0.919950000000     0.817800000000     0.270133333333     0          
O        O      0.881250000000     0.750000000000     0.293500000000     0          
O        O      0.860500000000     0.845000000000     0.273000000000     0          
O        O      0.908750000000     0.824700000000     0.020733333333     0          
O        O      0.829950000000     0.850400000000     0.116433333333     0          
O        O      0.876450000000     0.811800000000     0.084100000000     0          
O        O      0.843600000000     0.750000000000     0.124100000000     0          
O        O      0.885800000000     0.817050000000     0.177933333333     0          
O        O      0.951100000000     0.684450000000     0.203733333333     0          
O        O      0.938150000000     0.845150000000     0.113066666667     0          
O        O      0.957850000000     0.750000000000     0.138266666667     0          
T        Si     0.892650000000     0.809500000000     0.297733333333     0          
T        Si     0.858650000000     0.807250000000     0.125566666667     0          
T        Si     0.919500000000     0.662500000000     0.217300000000     0          
T        Si     0.961800000000     0.809350000000     0.155366666667     0          
T        Si     0.903300000000     0.653200000000     0.069533333333     0          
O        O      0.919950000000     0.682200000000     0.270133333333     0          
O        O      0.860500000000     0.655000000000     0.273000000000     0          
O        O      0.908750000000     0.675300000000     0.020733333333     0          
O        O      0.829950000000     0.649600000000     0.116433333333     0          
O        O      0.876450000000     0.688200000000     0.084100000000     0          
O        O      0.885800000000     0.682950000000     0.177933333333     0          
O        O      0.951100000000     0.815550000000     0.203733333333     0          
O        O      0.938150000000     0.654850000000     0.113066666667     0          
O        O      0.500000000000     0.672900000000     0.166666666667     0          
T        Si     0.892650000000     0.690500000000     0.297733333333     0          
T        Si     0.858650000000     0.692750000000     0.125566666667     0          
T        Si     0.919500000000     0.837500000000     0.217300000000     0          
T        Si     0.961800000000     0.690650000000     0.155366666667     0          
T        Si     0.903300000000     0.846800000000     0.069533333333     0          
O        O      0.580050000000     0.682200000000     0.063200000000     0          
O        O      0.639500000000     0.655000000000     0.060333333333     0          
O        O      0.591250000000     0.675300000000     0.312600000000     0          
O        O      0.670050000000     0.649600000000     0.216900000000     0          
O        O      0.623550000000     0.688200000000     0.249233333333     0          
O        O      0.614200000000     0.682950000000     0.155400000000     0          
O        O      0.548900000000     0.815550000000     0.129600000000     0          
O        O      0.561850000000     0.654850000000     0.220266666667     0          
T        Si     0.607350000000     0.690500000000     0.035600000000     0          
T        Si     0.641350000000     0.692750000000     0.207766666667     0          
T        Si     0.580500000000     0.837500000000     0.116033333333     0          
T        Si     0.538200000000     0.690650000000     0.177966666667     0          
T        Si     0.596700000000     0.846800000000     0.263800000000     0          
O        O      0.830050000000     0.567800000000     0.396533333333     0          
O        O      0.868750000000     0.500000000000     0.373166666667     0          
O        O      0.889500000000     0.595000000000     0.393666666667     0          
O        O      0.841250000000     0.574700000000     0.645933333333     0          
O        O      0.920050000000     0.600400000000     0.550233333333     0          
O        O      0.873550000000     0.561800000000     0.582566666667     0          
O        O      0.906400000000     0.500000000000     0.542566666667     0          
O        O      0.864200000000     0.567050000000     0.488733333333     0          
O        O      0.798900000000     0.934450000000     0.462933333333     0          
O        O      0.811850000000     0.595150000000     0.553600000000     0          
O        O      0.750000000000     0.577100000000     0.500000000000     0          
O        O      0.792150000000     0.500000000000     0.528400000000     0          
T        Si     0.857350000000     0.559500000000     0.368933333333     0          
T        Si     0.891350000000     0.557250000000     0.541100000000     0          
T        Si     0.830500000000     0.912500000000     0.449366666667     0          
T        Si     0.788200000000     0.559350000000     0.511300000000     0          
T        Si     0.846700000000     0.903200000000     0.597133333333     0          
O        O      0.669950000000     0.567800000000     0.603466666667     0          
O        O      0.631250000000     0.500000000000     0.626833333333     0          
O        O      0.610500000000     0.595000000000     0.606333333333     0          
O        O      0.658750000000     0.574700000000     0.354066666667     0          
O        O      0.579950000000     0.600400000000     0.449766666667     0          
O        O      0.626450000000     0.561800000000     0.417433333333     0          
O        O      0.593600000000     0.500000000000     0.457433333333     0          
O        O      0.635800000000     0.567050000000     0.511266666667     0          
O        O      0.701100000000     0.934450000000     0.537066666667     0          
O        O      0.688150000000     0.595150000000     0.446400000000     0          
O        O      0.707850000000     0.500000000000     0.471600000000     0          
T        Si     0.642650000000     0.559500000000     0.631066666667     0          
T        Si     0.608650000000     0.557250000000     0.458900000000     0          
T        Si     0.669500000000     0.912500000000     0.550633333333     0          
T        Si     0.711800000000     0.559350000000     0.488700000000     0          
T        Si     0.653300000000     0.903200000000     0.402866666667     0          
O        O      0.669950000000     0.932200000000     0.603466666667     0          
O        O      0.610500000000     0.905000000000     0.606333333333     0          
O        O      0.658750000000     0.925300000000     0.354066666667     0          
O        O      0.579950000000     0.899600000000     0.449766666667     0          
O        O      0.626450000000     0.938200000000     0.417433333333     0          
O        O      0.635800000000     0.932950000000     0.511266666667     0          
O        O      0.701100000000     0.565550000000     0.537066666667     0          
O        O      0.688150000000     0.904850000000     0.446400000000     0          
O        O      0.750000000000     0.922900000000     0.500000000000     0          
T        Si     0.642650000000     0.940500000000     0.631066666667     0          
T        Si     0.608650000000     0.942750000000     0.458900000000     0          
T        Si     0.669500000000     0.587500000000     0.550633333333     0          
T        Si     0.711800000000     0.940650000000     0.488700000000     0          
T        Si     0.653300000000     0.596800000000     0.402866666667     0          
O        O      0.830050000000     0.932200000000     0.396533333333     0          
O        O      0.889500000000     0.905000000000     0.393666666667     0          
O        O      0.841250000000     0.925300000000     0.645933333333     0          
O        O      0.920050000000     0.899600000000     0.550233333333     0          
O        O      0.873550000000     0.938200000000     0.582566666667     0          
O        O      0.864200000000     0.932950000000     0.488733333333     0          
O        O      0.798900000000     0.565550000000     0.462933333333     0          
O        O      0.811850000000     0.904850000000     0.553600000000     0          
T        Si     0.857350000000     0.940500000000     0.368933333333     0          
T        Si     0.891350000000     0.942750000000     0.541100000000     0          
T        Si     0.830500000000     0.587500000000     0.449366666667     0          
T        Si     0.788200000000     0.940650000000     0.511300000000     0          
T        Si     0.846700000000     0.596800000000     0.597133333333     0          
O        O      0.580050000000     0.817800000000     0.396533333333     0          
O        O      0.618750000000     0.750000000000     0.373166666667     0          
O        O      0.639500000000     0.845000000000     0.393666666667     0          
O        O      0.591250000000     0.824700000000     0.645933333333     0          
O        O      0.670050000000     0.850400000000     0.550233333333     0          
O        O      0.623550000000     0.811800000000     0.582566666667     0          
O        O      0.656400000000     0.750000000000     0.542566666667     0          
O        O      0.614200000000     0.817050000000     0.488733333333     0          
O        O      0.548900000000     0.684450000000     0.462933333333     0          
O        O      0.561850000000     0.845150000000     0.553600000000     0          
O        O      0.500000000000     0.827100000000     0.500000000000     0          
O        O      0.542150000000     0.750000000000     0.528400000000     0          
T        Si     0.607350000000     0.809500000000     0.368933333333     0          
T        Si     0.641350000000     0.807250000000     0.541100000000     0          
T        Si     0.580500000000     0.662500000000     0.449366666667     0          
T        Si     0.538200000000     0.809350000000     0.511300000000     0          
T        Si     0.596700000000     0.653200000000     0.597133333333     0          
O        O      0.919950000000     0.817800000000     0.603466666667     0          
O        O      0.881250000000     0.750000000000     0.626833333333     0          
O        O      0.860500000000     0.845000000000     0.606333333333     0          
O        O      0.908750000000     0.824700000000     0.354066666667     0          
O        O      0.829950000000     0.850400000000     0.449766666667     0          
O        O      0.876450000000     0.811800000000     0.417433333333     0          
O        O      0.843600000000     0.750000000000     0.457433333333     0          
O        O      0.885800000000     0.817050000000     0.511266666667     0          
O        O      0.951100000000     0.684450000000     0.537066666667     0          
O        O      0.938150000000     0.845150000000     0.446400000000     0          
O        O      0.957850000000     0.750000000000     0.471600000000     0          
T        Si     0.892650000000     0.809500000000     0.631066666667     0          
T        Si     0.858650000000     0.807250000000     0.458900000000     0          
T        Si     0.919500000000     0.662500000000     0.550633333333     0          
T        Si     0.961800000000     0.809350000000     0.488700000000     0          
T        Si     0.903300000000     0.653200000000     0.402866666667     0          
O        O      0.919950000000     0.682200000000     0.603466666667     0          
O        O      0.860500000000     0.655000000000     0.606333333333     0          
O        O      0.908750000000     0.675300000000     0.354066666667     0          
O        O      0.829950000000     0.649600000000     0.449766666667     0          
O        O      0.876450000000     0.688200000000     0.417433333333     0          
O        O      0.885800000000     0.682950000000     0.511266666667     0          
O        O      0.951100000000     0.815550000000     0.537066666667     0          
O        O      0.938150000000     0.654850000000     0.446400000000     0          
O        O      0.500000000000     0.672900000000     0.500000000000     0          
T        Si     0.892650000000     0.690500000000     0.631066666667     0          
T        Si     0.858650000000     0.692750000000     0.458900000000     0          
T        Si     0.919500000000     0.837500000000     0.550633333333     0          
T        Si     0.961800000000     0.690650000000     0.488700000000     0          
T        Si     0.903300000000     0.846800000000     0.402866666667     0          
O        O      0.580050000000     0.682200000000     0.396533333333     0          
O        O      0.639500000000     0.655000000000     0.393666666667     0          
O        O      0.591250000000     0.675300000000     0.645933333333     0          
O        O      0.670050000000     0.649600000000     0.550233333333     0          
O        O      0.623550000000     0.688200000000     0.582566666667     0          
O        O      0.614200000000     0.682950000000     0.488733333333     0          
O        O      0.548900000000     0.815550000000     0.462933333333     0          
O        O      0.561850000000     0.654850000000     0.553600000000     0          
T        Si     0.607350000000     0.690500000000     0.368933333333     0          
T        Si     0.641350000000     0.692750000000     0.541100000000     0          
T        Si     0.580500000000     0.837500000000     0.449366666667     0          
T        Si     0.538200000000     0.690650000000     0.511300000000     0          
T        Si     0.596700000000     0.846800000000     0.597133333333     0          
O        O      0.830050000000     0.567800000000     0.729866666667     0          
O        O      0.868750000000     0.500000000000     0.706500000000     0          
O        O      0.889500000000     0.595000000000     0.727000000000     0          
O        O      0.841250000000     0.574700000000     0.979266666667     0          
O        O      0.920050000000     0.600400000000     0.883566666667     0          
O        O      0.873550000000     0.561800000000     0.915900000000     0          
O        O      0.906400000000     0.500000000000     0.875900000000     0          
O        O      0.864200000000     0.567050000000     0.822066666667     0          
O        O      0.798900000000     0.934450000000     0.796266666667     0          
O        O      0.811850000000     0.595150000000     0.886933333333     0          
O        O      0.750000000000     0.577100000000     0.833333333333     0          
O        O      0.792150000000     0.500000000000     0.861733333333     0          
T        Si     0.857350000000     0.559500000000     0.702266666667     0          
T        Si     0.891350000000     0.557250000000     0.874433333333     0          
T        Si     0.830500000000     0.912500000000     0.782700000000     0          
T        Si     0.788200000000     0.559350000000     0.844633333333     0          
T        Si     0.846700000000     0.903200000000     0.930466666667     0          
O        O      0.669950000000     0.567800000000     0.936800000000     0          
O        O      0.631250000000     0.500000000000     0.960166666667     0          
O        O      0.610500000000     0.595000000000     0.939666666667     0          
O        O      0.658750000000     0.574700000000     0.687400000000     0          
O        O      0.579950000000     0.600400000000     0.783100000000     0          
O        O      0.626450000000     0.561800000000     0.750766666667     0          
O        O      0.593600000000     0.500000000000     0.790766666667     0          
O        O      0.635800000000     0.567050000000     0.844600000000     0          
O        O      0.701100000000     0.934450000000     0.870400000000     0          
O        O      0.688150000000     0.595150000000     0.779733333333     0          
O        O      0.707850000000     0.500000000000     0.804933333333     0          
T        Si     0.642650000000     0.559500000000     0.964400000000     0          
T        Si     0.608650000000     0.557250000000     0.792233333333     0          
T        Si     0.669500000000     0.912500000000     0.883966666667     0          
T        Si     0.711800000000     0.559350000000     0.822033333333     0          
T        Si     0.653300000000     0.903200000000     0.736200000000     0          
O        O      0.669950000000     0.932200000000     0.936800000000     0          
O        O      0.610500000000     0.905000000000     0.939666666667     0          
O        O      0.658750000000     0.925300000000     0.687400000000     0          
O        O      0.579950000000     0.899600000000     0.783100000000     0          
O        O      0.626450000000     0.938200000000     0.750766666667     0          
O        O      0.635800000000     0.932950000000     0.844600000000     0          
O        O      0.701100000000     0.565550000000     0.870400000000     0          
O        O      0.688150000000     0.904850000000     0.779733333333     0          
O        O      0.750000000000     0.922900000000     0.833333333333     0          
T        Si     0.642650000000     0.940500000000     0.964400000000     0          
T        Si     0.608650000000     0.942750000000     0.792233333333     0          
T        Si     0.669500000000     0.587500000000     0.883966666667     0          
T        Si     0.711800000000     0.940650000000     0.822033333333     0          
T        Si     0.653300000000     0.596800000000     0.736200000000     0          
O        O      0.830050000000     0.932200000000     0.729866666667     0          
O        O      0.889500000000     0.905000000000     0.727000000000     0          
O        O      0.841250000000     0.925300000000     0.979266666667     0          
O        O      0.920050000000     0.899600000000     0.883566666667     0          
O        O      0.873550000000     0.938200000000     0.915900000000     0          
O        O      0.864200000000     0.932950000000     0.822066666667     0          
O        O      0.798900000000     0.565550000000     0.796266666667     0          
O        O      0.811850000000     0.904850000000     0.886933333333     0          
T        Si     0.857350000000     0.940500000000     0.702266666667     0          
T        Si     0.891350000000     0.942750000000     0.874433333333     0          
T        Si     0.830500000000     0.587500000000     0.782700000000     0          
T        Si     0.788200000000     0.940650000000     0.844633333333     0          
T        Si     0.846700000000     0.596800000000     0.930466666667     0          
O        O      0.580050000000     0.817800000000     0.729866666667     0          
O        O      0.618750000000     0.750000000000     0.706500000000     0          
O        O      0.639500000000     0.845000000000     0.727000000000     0          
O        O      0.591250000000     0.824700000000     0.979266666667     0          
O        O      0.670050000000     0.850400000000     0.883566666667     0          
O        O      0.623550000000     0.811800000000     0.915900000000     0          
O        O      0.656400000000     0.750000000000     0.875900000000     0          
O        O      0.614200000000     0.817050000000     0.822066666667     0          
O        O      0.548900000000     0.684450000000     0.796266666667     0          
O        O      0.561850000000     0.845150000000     0.886933333333     0          
O        O      0.500000000000     0.827100000000     0.833333333333     0          
O        O      0.542150000000     0.750000000000     0.861733333333     0          
T        Si     0.607350000000     0.809500000000     0.702266666667     0          
T        Si     0.641350000000     0.807250000000     0.874433333333     0          
T        Si     0.580500000000     0.662500000000     0.782700000000     0          
T        Si     0.538200000000     0.809350000000     0.844633333333     0          
T        Si     0.596700000000     0.653200000000     0.930466666667     0          
O        O      0.919950000000     0.817800000000     0.936800000000     0          
O        O      0.881250000000     0.750000000000     0.960166666667     0          
O        O      0.860500000000     0.845000000000     0.939666666667     0          
O        O      0.908750000000     0.824700000000     0.687400000000     0          
O        O      0.829950000000     0.850400000000     0.783100000000     0          
O        O      0.876450000000     0.811800000000     0.750766666667     0          
O        O      0.843600000000     0.750000000000     0.790766666667     0          
O        O      0.885800000000     0.817050000000     0.844600000000     0          
O        O      0.951100000000     0.684450000000     0.870400000000     0          
O        O      0.938150000000     0.845150000000     0.779733333333     0          
O        O      0.957850000000     0.750000000000     0.804933333333     0          
T        Si     0.892650000000     0.809500000000     0.964400000000     0          
T        Si     0.858650000000     0.807250000000     0.792233333333     0          
T        Si     0.919500000000     0.662500000000     0.883966666667     0          
T        Si     0.961800000000     0.809350000000     0.822033333333     0          
T        Si     0.903300000000     0.653200000000     0.736200000000     0          
O        O      0.919950000000     0.682200000000     0.936800000000     0          
O        O      0.860500000000     0.655000000000     0.939666666667     0          
O        O      0.908750000000     0.675300000000     0.687400000000     0          
O        O      0.829950000000     0.649600000000     0.783100000000     0          
O        O      0.876450000000     0.688200000000     0.750766666667     0          
O        O      0.885800000000     0.682950000000     0.844600000000     0          
O        O      0.951100000000     0.815550000000     0.870400000000     0          
O        O      0.938150000000     0.654850000000     0.779733333333     0          
O        O      0.500000000000     0.672900000000     0.833333333333     0          
T        Si     0.892650000000     0.690500000000     0.964400000000     0          
T        Si     0.858650000000     0.692750000000     0.792233333333     0          
T        Si     0.919500000000     0.837500000000     0.883966666667     0          
T        Si     0.961800000000     0.690650000000     0.822033333333     0          
T        Si     0.903300000000     0.846800000000     0.736200000000     0          
O        O      0.580050000000     0.682200000000     0.729866666667     0          
O        O      0.639500000000     0.655000000000     0.727000000000     0          
O        O      0.591250000000     0.675300000000     0.979266666667     0          
O        O      0.670050000000     0.649600000000     0.883566666667     0          
O        O      0.623550000000     0.688200000000     0.915900000000     0          
O        O      0.614200000000     0.682950000000     0.822066666667     0          
O        O      0.548900000000     0.815550000000     0.796266666667     0          
O        O      0.561850000000     0.654850000000     0.886933333333     0          
T        Si     0.607350000000     0.690500000000     0.702266666667     0          
T        Si     0.641350000000     0.692750000000     0.874433333333     0          
T        Si     0.580500000000     0.837500000000     0.782700000000     0          
T        Si     0.538200000000     0.690650000000     0.844633333333     0          
T        Si     0.596700000000     0.846800000000     0.930466666667     0          


