data_zeolite

_audit_creation_method RASPA-1.0
_audit_creation_date 2021-6-7
_audit_author_name ''

_cell_length_a    8.914
_cell_length_b    9.209
_cell_length_c    16.087
_cell_angle_alpha 90
_cell_angle_beta  90
_cell_angle_gamma 90
_cell_volume      23770.2

_symmetry_cell_setting          orthorhombic
_symmetry_space_group_name_Hall 'P 1'
_symmetry_space_group_name_H-M  'P 1'
_symmetry_Int_Tables_number     1

_symmetry_equiv_pos_as_xyz 'x,y,z'

loop_
_atom_site_label
_atom_site_type_symbol
_atom_site_fract_x
_atom_site_fract_y
_atom_site_fract_z
_atom_site_charge
T        Si     0.051600000000     0.286433333333     0.194600000000     0          
T        Si     0.015100000000     0.214466666667     0.036100000000     0          
T        Si     0.066400000000     0.139366666667     0.171300000000     0          
T        Si     0.328033333333     0.110933333333     0.381200000000     0          
T        Si     0.050066666667     0.199500000000     0.250600000000     0          
T        Si     0.002300000000     0.056966666667     0.207200000000     0          
T        Si     0.281733333333     0.046900000000     0.444600000000     0          
T        Si     0.318233333333     0.118866666667     0.286100000000     0          
T        Si     0.266933333333     0.193966666667     0.421300000000     0          
T        Si     0.005300000000     0.222400000000     0.131200000000     0          
T        Si     0.283266666667     0.133833333333     0.000600000000     0          
T        Si     0.331033333333     0.276366666667     0.457200000000     0          
T        Si     0.115066666667     0.286433333333     0.444600000000     0          
T        Si     0.151566666667     0.214466666667     0.286100000000     0          
T        Si     0.100266666667     0.139366666667     0.421300000000     0          
T        Si     0.171966666667     0.110933333333     0.131200000000     0          
T        Si     0.116600000000     0.199500000000     0.000600000000     0          
T        Si     0.164366666667     0.056966666667     0.457200000000     0          
T        Si     0.218266666667     0.046900000000     0.194600000000     0          
T        Si     0.181766666667     0.118866666667     0.036100000000     0          
T        Si     0.233066666667     0.193966666667     0.171300000000     0          
T        Si     0.161366666667     0.222400000000     0.381200000000     0          
T        Si     0.216733333333     0.133833333333     0.250600000000     0          
T        Si     0.168966666667     0.276366666667     0.207200000000     0          
T        Si     0.051600000000     0.286433333333     0.694600000000     0          
T        Si     0.015100000000     0.214466666667     0.536100000000     0          
T        Si     0.066400000000     0.139366666667     0.671300000000     0          
T        Si     0.328033333333     0.110933333333     0.881200000000     0          
T        Si     0.050066666667     0.199500000000     0.750600000000     0          
T        Si     0.002300000000     0.056966666667     0.707200000000     0          
T        Si     0.281733333333     0.046900000000     0.944600000000     0          
T        Si     0.318233333333     0.118866666667     0.786100000000     0          
T        Si     0.266933333333     0.193966666667     0.921300000000     0          
T        Si     0.005300000000     0.222400000000     0.631200000000     0          
T        Si     0.283266666667     0.133833333333     0.500600000000     0          
T        Si     0.331033333333     0.276366666667     0.957200000000     0          
T        Si     0.115066666667     0.286433333333     0.944600000000     0          
T        Si     0.151566666667     0.214466666667     0.786100000000     0          
T        Si     0.100266666667     0.139366666667     0.921300000000     0          
T        Si     0.171966666667     0.110933333333     0.631200000000     0          
T        Si     0.116600000000     0.199500000000     0.500600000000     0          
T        Si     0.164366666667     0.056966666667     0.957200000000     0          
T        Si     0.218266666667     0.046900000000     0.694600000000     0          
T        Si     0.181766666667     0.118866666667     0.536100000000     0          
T        Si     0.233066666667     0.193966666667     0.671300000000     0          
T        Si     0.161366666667     0.222400000000     0.881200000000     0          
T        Si     0.216733333333     0.133833333333     0.750600000000     0          
T        Si     0.168966666667     0.276366666667     0.707200000000     0          
T        Si     0.051600000000     0.619766666667     0.194600000000     0          
T        Si     0.015100000000     0.547800000000     0.036100000000     0          
T        Si     0.066400000000     0.472700000000     0.171300000000     0          
T        Si     0.328033333333     0.444266666667     0.381200000000     0          
T        Si     0.050066666667     0.532833333333     0.250600000000     0          
T        Si     0.002300000000     0.390300000000     0.207200000000     0          
T        Si     0.281733333333     0.380233333333     0.444600000000     0          
T        Si     0.318233333333     0.452200000000     0.286100000000     0          
T        Si     0.266933333333     0.527300000000     0.421300000000     0          
T        Si     0.005300000000     0.555733333333     0.131200000000     0          
T        Si     0.283266666667     0.467166666667     0.000600000000     0          
T        Si     0.331033333333     0.609700000000     0.457200000000     0          
T        Si     0.115066666667     0.619766666667     0.444600000000     0          
T        Si     0.151566666667     0.547800000000     0.286100000000     0          
T        Si     0.100266666667     0.472700000000     0.421300000000     0          
T        Si     0.171966666667     0.444266666667     0.131200000000     0          
T        Si     0.116600000000     0.532833333333     0.000600000000     0          
T        Si     0.164366666667     0.390300000000     0.457200000000     0          
T        Si     0.218266666667     0.380233333333     0.194600000000     0          
T        Si     0.181766666667     0.452200000000     0.036100000000     0          
T        Si     0.233066666667     0.527300000000     0.171300000000     0          
T        Si     0.161366666667     0.555733333333     0.381200000000     0          
T        Si     0.216733333333     0.467166666667     0.250600000000     0          
T        Si     0.168966666667     0.609700000000     0.207200000000     0          
T        Si     0.051600000000     0.619766666667     0.694600000000     0          
T        Si     0.015100000000     0.547800000000     0.536100000000     0          
T        Si     0.066400000000     0.472700000000     0.671300000000     0          
T        Si     0.328033333333     0.444266666667     0.881200000000     0          
T        Si     0.050066666667     0.532833333333     0.750600000000     0          
T        Si     0.002300000000     0.390300000000     0.707200000000     0          
T        Si     0.281733333333     0.380233333333     0.944600000000     0          
T        Si     0.318233333333     0.452200000000     0.786100000000     0          
T        Si     0.266933333333     0.527300000000     0.921300000000     0          
T        Si     0.005300000000     0.555733333333     0.631200000000     0          
T        Si     0.283266666667     0.467166666667     0.500600000000     0          
T        Si     0.331033333333     0.609700000000     0.957200000000     0          
T        Si     0.115066666667     0.619766666667     0.944600000000     0          
T        Si     0.151566666667     0.547800000000     0.786100000000     0          
T        Si     0.100266666667     0.472700000000     0.921300000000     0          
T        Si     0.171966666667     0.444266666667     0.631200000000     0          
T        Si     0.116600000000     0.532833333333     0.500600000000     0          
T        Si     0.164366666667     0.390300000000     0.957200000000     0          
T        Si     0.218266666667     0.380233333333     0.694600000000     0          
T        Si     0.181766666667     0.452200000000     0.536100000000     0          
T        Si     0.233066666667     0.527300000000     0.671300000000     0          
T        Si     0.161366666667     0.555733333333     0.881200000000     0          
T        Si     0.216733333333     0.467166666667     0.750600000000     0          
T        Si     0.168966666667     0.609700000000     0.707200000000     0          
T        Si     0.051600000000     0.953100000000     0.194600000000     0          
T        Si     0.015100000000     0.881133333333     0.036100000000     0          
T        Si     0.066400000000     0.806033333333     0.171300000000     0          
T        Si     0.328033333333     0.777600000000     0.381200000000     0          
T        Si     0.050066666667     0.866166666667     0.250600000000     0          
T        Si     0.002300000000     0.723633333333     0.207200000000     0          
T        Si     0.281733333333     0.713566666667     0.444600000000     0          
T        Si     0.318233333333     0.785533333333     0.286100000000     0          
T        Si     0.266933333333     0.860633333333     0.421300000000     0          
T        Si     0.005300000000     0.889066666667     0.131200000000     0          
T        Si     0.283266666667     0.800500000000     0.000600000000     0          
T        Si     0.331033333333     0.943033333333     0.457200000000     0          
T        Si     0.115066666667     0.953100000000     0.444600000000     0          
T        Si     0.151566666667     0.881133333333     0.286100000000     0          
T        Si     0.100266666667     0.806033333333     0.421300000000     0          
T        Si     0.171966666667     0.777600000000     0.131200000000     0          
T        Si     0.116600000000     0.866166666667     0.000600000000     0          
T        Si     0.164366666667     0.723633333333     0.457200000000     0          
T        Si     0.218266666667     0.713566666667     0.194600000000     0          
T        Si     0.181766666667     0.785533333333     0.036100000000     0          
T        Si     0.233066666667     0.860633333333     0.171300000000     0          
T        Si     0.161366666667     0.889066666667     0.381200000000     0          
T        Si     0.216733333333     0.800500000000     0.250600000000     0          
T        Si     0.168966666667     0.943033333333     0.207200000000     0          
T        Si     0.051600000000     0.953100000000     0.694600000000     0          
T        Si     0.015100000000     0.881133333333     0.536100000000     0          
T        Si     0.066400000000     0.806033333333     0.671300000000     0          
T        Si     0.328033333333     0.777600000000     0.881200000000     0          
T        Si     0.050066666667     0.866166666667     0.750600000000     0          
T        Si     0.002300000000     0.723633333333     0.707200000000     0          
T        Si     0.281733333333     0.713566666667     0.944600000000     0          
T        Si     0.318233333333     0.785533333333     0.786100000000     0          
T        Si     0.266933333333     0.860633333333     0.921300000000     0          
T        Si     0.005300000000     0.889066666667     0.631200000000     0          
T        Si     0.283266666667     0.800500000000     0.500600000000     0          
T        Si     0.331033333333     0.943033333333     0.957200000000     0          
T        Si     0.115066666667     0.953100000000     0.944600000000     0          
T        Si     0.151566666667     0.881133333333     0.786100000000     0          
T        Si     0.100266666667     0.806033333333     0.921300000000     0          
T        Si     0.171966666667     0.777600000000     0.631200000000     0          
T        Si     0.116600000000     0.866166666667     0.500600000000     0          
T        Si     0.164366666667     0.723633333333     0.957200000000     0          
T        Si     0.218266666667     0.713566666667     0.694600000000     0          
T        Si     0.181766666667     0.785533333333     0.536100000000     0          
T        Si     0.233066666667     0.860633333333     0.671300000000     0          
T        Si     0.161366666667     0.889066666667     0.881200000000     0          
T        Si     0.216733333333     0.800500000000     0.750600000000     0          
T        Si     0.168966666667     0.943033333333     0.707200000000     0          
T        Si     0.384933333333     0.286433333333     0.194600000000     0          
T        Si     0.348433333333     0.214466666667     0.036100000000     0          
T        Si     0.399733333333     0.139366666667     0.171300000000     0          
T        Si     0.661366666667     0.110933333333     0.381200000000     0          
T        Si     0.383400000000     0.199500000000     0.250600000000     0          
T        Si     0.335633333333     0.056966666667     0.207200000000     0          
T        Si     0.615066666667     0.046900000000     0.444600000000     0          
T        Si     0.651566666667     0.118866666667     0.286100000000     0          
T        Si     0.600266666667     0.193966666667     0.421300000000     0          
T        Si     0.338633333333     0.222400000000     0.131200000000     0          
T        Si     0.616600000000     0.133833333333     0.000600000000     0          
T        Si     0.664366666667     0.276366666667     0.457200000000     0          
T        Si     0.448400000000     0.286433333333     0.444600000000     0          
T        Si     0.484900000000     0.214466666667     0.286100000000     0          
T        Si     0.433600000000     0.139366666667     0.421300000000     0          
T        Si     0.505300000000     0.110933333333     0.131200000000     0          
T        Si     0.449933333333     0.199500000000     0.000600000000     0          
T        Si     0.497700000000     0.056966666667     0.457200000000     0          
T        Si     0.551600000000     0.046900000000     0.194600000000     0          
T        Si     0.515100000000     0.118866666667     0.036100000000     0          
T        Si     0.566400000000     0.193966666667     0.171300000000     0          
T        Si     0.494700000000     0.222400000000     0.381200000000     0          
T        Si     0.550066666667     0.133833333333     0.250600000000     0          
T        Si     0.502300000000     0.276366666667     0.207200000000     0          
T        Si     0.384933333333     0.286433333333     0.694600000000     0          
T        Si     0.348433333333     0.214466666667     0.536100000000     0          
T        Si     0.399733333333     0.139366666667     0.671300000000     0          
T        Si     0.661366666667     0.110933333333     0.881200000000     0          
T        Si     0.383400000000     0.199500000000     0.750600000000     0          
T        Si     0.335633333333     0.056966666667     0.707200000000     0          
T        Si     0.615066666667     0.046900000000     0.944600000000     0          
T        Si     0.651566666667     0.118866666667     0.786100000000     0          
T        Si     0.600266666667     0.193966666667     0.921300000000     0          
T        Si     0.338633333333     0.222400000000     0.631200000000     0          
T        Si     0.616600000000     0.133833333333     0.500600000000     0          
T        Si     0.664366666667     0.276366666667     0.957200000000     0          
T        Si     0.448400000000     0.286433333333     0.944600000000     0          
T        Si     0.484900000000     0.214466666667     0.786100000000     0          
T        Si     0.433600000000     0.139366666667     0.921300000000     0          
T        Si     0.505300000000     0.110933333333     0.631200000000     0          
T        Si     0.449933333333     0.199500000000     0.500600000000     0          
T        Si     0.497700000000     0.056966666667     0.957200000000     0          
T        Si     0.551600000000     0.046900000000     0.694600000000     0          
T        Si     0.515100000000     0.118866666667     0.536100000000     0          
T        Si     0.566400000000     0.193966666667     0.671300000000     0          
T        Si     0.494700000000     0.222400000000     0.881200000000     0          
T        Si     0.550066666667     0.133833333333     0.750600000000     0          
T        Si     0.502300000000     0.276366666667     0.707200000000     0          
T        Si     0.384933333333     0.619766666667     0.194600000000     0          
T        Si     0.348433333333     0.547800000000     0.036100000000     0          
T        Si     0.399733333333     0.472700000000     0.171300000000     0          
T        Si     0.661366666667     0.444266666667     0.381200000000     0          
T        Si     0.383400000000     0.532833333333     0.250600000000     0          
T        Si     0.335633333333     0.390300000000     0.207200000000     0          
T        Si     0.615066666667     0.380233333333     0.444600000000     0          
T        Si     0.651566666667     0.452200000000     0.286100000000     0          
T        Si     0.600266666667     0.527300000000     0.421300000000     0          
T        Si     0.338633333333     0.555733333333     0.131200000000     0          
T        Si     0.616600000000     0.467166666667     0.000600000000     0          
T        Si     0.664366666667     0.609700000000     0.457200000000     0          
T        Si     0.448400000000     0.619766666667     0.444600000000     0          
T        Si     0.484900000000     0.547800000000     0.286100000000     0          
T        Si     0.433600000000     0.472700000000     0.421300000000     0          
T        Si     0.505300000000     0.444266666667     0.131200000000     0          
T        Si     0.449933333333     0.532833333333     0.000600000000     0          
T        Si     0.497700000000     0.390300000000     0.457200000000     0          
T        Si     0.551600000000     0.380233333333     0.194600000000     0          
T        Si     0.515100000000     0.452200000000     0.036100000000     0          
T        Si     0.566400000000     0.527300000000     0.171300000000     0          
T        Si     0.494700000000     0.555733333333     0.381200000000     0          
T        Si     0.550066666667     0.467166666667     0.250600000000     0          
T        Si     0.502300000000     0.609700000000     0.207200000000     0          
T        Si     0.384933333333     0.619766666667     0.694600000000     0          
T        Si     0.348433333333     0.547800000000     0.536100000000     0          
T        Si     0.399733333333     0.472700000000     0.671300000000     0          
T        Si     0.661366666667     0.444266666667     0.881200000000     0          
T        Si     0.383400000000     0.532833333333     0.750600000000     0          
T        Si     0.335633333333     0.390300000000     0.707200000000     0          
T        Si     0.615066666667     0.380233333333     0.944600000000     0          
T        Si     0.651566666667     0.452200000000     0.786100000000     0          
T        Si     0.600266666667     0.527300000000     0.921300000000     0          
T        Si     0.338633333333     0.555733333333     0.631200000000     0          
T        Si     0.616600000000     0.467166666667     0.500600000000     0          
T        Si     0.664366666667     0.609700000000     0.957200000000     0          
T        Si     0.448400000000     0.619766666667     0.944600000000     0          
T        Si     0.484900000000     0.547800000000     0.786100000000     0          
T        Si     0.433600000000     0.472700000000     0.921300000000     0          
T        Si     0.505300000000     0.444266666667     0.631200000000     0          
T        Si     0.449933333333     0.532833333333     0.500600000000     0          
T        Si     0.497700000000     0.390300000000     0.957200000000     0          
T        Si     0.551600000000     0.380233333333     0.694600000000     0          
T        Si     0.515100000000     0.452200000000     0.536100000000     0          
T        Si     0.566400000000     0.527300000000     0.671300000000     0          
T        Si     0.494700000000     0.555733333333     0.881200000000     0          
T        Si     0.550066666667     0.467166666667     0.750600000000     0          
T        Si     0.502300000000     0.609700000000     0.707200000000     0          
T        Si     0.384933333333     0.953100000000     0.194600000000     0          
T        Si     0.348433333333     0.881133333333     0.036100000000     0          
T        Si     0.399733333333     0.806033333333     0.171300000000     0          
T        Si     0.661366666667     0.777600000000     0.381200000000     0          
T        Si     0.383400000000     0.866166666667     0.250600000000     0          
T        Si     0.335633333333     0.723633333333     0.207200000000     0          
T        Si     0.615066666667     0.713566666667     0.444600000000     0          
T        Si     0.651566666667     0.785533333333     0.286100000000     0          
T        Si     0.600266666667     0.860633333333     0.421300000000     0          
T        Si     0.338633333333     0.889066666667     0.131200000000     0          
T        Si     0.616600000000     0.800500000000     0.000600000000     0          
T        Si     0.664366666667     0.943033333333     0.457200000000     0          
T        Si     0.448400000000     0.953100000000     0.444600000000     0          
T        Si     0.484900000000     0.881133333333     0.286100000000     0          
T        Si     0.433600000000     0.806033333333     0.421300000000     0          
T        Si     0.505300000000     0.777600000000     0.131200000000     0          
T        Si     0.449933333333     0.866166666667     0.000600000000     0          
T        Si     0.497700000000     0.723633333333     0.457200000000     0          
T        Si     0.551600000000     0.713566666667     0.194600000000     0          
T        Si     0.515100000000     0.785533333333     0.036100000000     0          
T        Si     0.566400000000     0.860633333333     0.171300000000     0          
T        Si     0.494700000000     0.889066666667     0.381200000000     0          
T        Si     0.550066666667     0.800500000000     0.250600000000     0          
T        Si     0.502300000000     0.943033333333     0.207200000000     0          
T        Si     0.384933333333     0.953100000000     0.694600000000     0          
T        Si     0.348433333333     0.881133333333     0.536100000000     0          
T        Si     0.399733333333     0.806033333333     0.671300000000     0          
T        Si     0.661366666667     0.777600000000     0.881200000000     0          
T        Si     0.383400000000     0.866166666667     0.750600000000     0          
T        Si     0.335633333333     0.723633333333     0.707200000000     0          
T        Si     0.615066666667     0.713566666667     0.944600000000     0          
T        Si     0.651566666667     0.785533333333     0.786100000000     0          
T        Si     0.600266666667     0.860633333333     0.921300000000     0          
T        Si     0.338633333333     0.889066666667     0.631200000000     0          
T        Si     0.616600000000     0.800500000000     0.500600000000     0          
T        Si     0.664366666667     0.943033333333     0.957200000000     0          
T        Si     0.448400000000     0.953100000000     0.944600000000     0          
T        Si     0.484900000000     0.881133333333     0.786100000000     0          
T        Si     0.433600000000     0.806033333333     0.921300000000     0          
T        Si     0.505300000000     0.777600000000     0.631200000000     0          
T        Si     0.449933333333     0.866166666667     0.500600000000     0          
T        Si     0.497700000000     0.723633333333     0.957200000000     0          
T        Si     0.551600000000     0.713566666667     0.694600000000     0          
T        Si     0.515100000000     0.785533333333     0.536100000000     0          
T        Si     0.566400000000     0.860633333333     0.671300000000     0          
T        Si     0.494700000000     0.889066666667     0.881200000000     0          
T        Si     0.550066666667     0.800500000000     0.750600000000     0          
T        Si     0.502300000000     0.943033333333     0.707200000000     0          
T        Si     0.718266666667     0.286433333333     0.194600000000     0          
T        Si     0.681766666667     0.214466666667     0.036100000000     0          
T        Si     0.733066666667     0.139366666667     0.171300000000     0          
T        Si     0.994700000000     0.110933333333     0.381200000000     0          
T        Si     0.716733333333     0.199500000000     0.250600000000     0          
T        Si     0.668966666667     0.056966666667     0.207200000000     0          
T        Si     0.948400000000     0.046900000000     0.444600000000     0          
T        Si     0.984900000000     0.118866666667     0.286100000000     0          
T        Si     0.933600000000     0.193966666667     0.421300000000     0          
T        Si     0.671966666667     0.222400000000     0.131200000000     0          
T        Si     0.949933333333     0.133833333333     0.000600000000     0          
T        Si     0.997700000000     0.276366666667     0.457200000000     0          
T        Si     0.781733333333     0.286433333333     0.444600000000     0          
T        Si     0.818233333333     0.214466666667     0.286100000000     0          
T        Si     0.766933333333     0.139366666667     0.421300000000     0          
T        Si     0.838633333333     0.110933333333     0.131200000000     0          
T        Si     0.783266666667     0.199500000000     0.000600000000     0          
T        Si     0.831033333333     0.056966666667     0.457200000000     0          
T        Si     0.884933333333     0.046900000000     0.194600000000     0          
T        Si     0.848433333333     0.118866666667     0.036100000000     0          
T        Si     0.899733333333     0.193966666667     0.171300000000     0          
T        Si     0.828033333333     0.222400000000     0.381200000000     0          
T        Si     0.883400000000     0.133833333333     0.250600000000     0          
T        Si     0.835633333333     0.276366666667     0.207200000000     0          
T        Si     0.718266666667     0.286433333333     0.694600000000     0          
T        Si     0.681766666667     0.214466666667     0.536100000000     0          
T        Si     0.733066666667     0.139366666667     0.671300000000     0          
T        Si     0.994700000000     0.110933333333     0.881200000000     0          
T        Si     0.716733333333     0.199500000000     0.750600000000     0          
T        Si     0.668966666667     0.056966666667     0.707200000000     0          
T        Si     0.948400000000     0.046900000000     0.944600000000     0          
T        Si     0.984900000000     0.118866666667     0.786100000000     0          
T        Si     0.933600000000     0.193966666667     0.921300000000     0          
T        Si     0.671966666667     0.222400000000     0.631200000000     0          
T        Si     0.949933333333     0.133833333333     0.500600000000     0          
T        Si     0.997700000000     0.276366666667     0.957200000000     0          
T        Si     0.781733333333     0.286433333333     0.944600000000     0          
T        Si     0.818233333333     0.214466666667     0.786100000000     0          
T        Si     0.766933333333     0.139366666667     0.921300000000     0          
T        Si     0.838633333333     0.110933333333     0.631200000000     0          
T        Si     0.783266666667     0.199500000000     0.500600000000     0          
T        Si     0.831033333333     0.056966666667     0.957200000000     0          
T        Si     0.884933333333     0.046900000000     0.694600000000     0          
T        Si     0.848433333333     0.118866666667     0.536100000000     0          
T        Si     0.899733333333     0.193966666667     0.671300000000     0          
T        Si     0.828033333333     0.222400000000     0.881200000000     0          
T        Si     0.883400000000     0.133833333333     0.750600000000     0          
T        Si     0.835633333333     0.276366666667     0.707200000000     0          
T        Si     0.718266666667     0.619766666667     0.194600000000     0          
T        Si     0.681766666667     0.547800000000     0.036100000000     0          
T        Si     0.733066666667     0.472700000000     0.171300000000     0          
T        Si     0.994700000000     0.444266666667     0.381200000000     0          
T        Si     0.716733333333     0.532833333333     0.250600000000     0          
T        Si     0.668966666667     0.390300000000     0.207200000000     0          
T        Si     0.948400000000     0.380233333333     0.444600000000     0          
T        Si     0.984900000000     0.452200000000     0.286100000000     0          
T        Si     0.933600000000     0.527300000000     0.421300000000     0          
T        Si     0.671966666667     0.555733333333     0.131200000000     0          
T        Si     0.949933333333     0.467166666667     0.000600000000     0          
T        Si     0.997700000000     0.609700000000     0.457200000000     0          
T        Si     0.781733333333     0.619766666667     0.444600000000     0          
T        Si     0.818233333333     0.547800000000     0.286100000000     0          
T        Si     0.766933333333     0.472700000000     0.421300000000     0          
T        Si     0.838633333333     0.444266666667     0.131200000000     0          
T        Si     0.783266666667     0.532833333333     0.000600000000     0          
T        Si     0.831033333333     0.390300000000     0.457200000000     0          
T        Si     0.884933333333     0.380233333333     0.194600000000     0          
T        Si     0.848433333333     0.452200000000     0.036100000000     0          
T        Si     0.899733333333     0.527300000000     0.171300000000     0          
T        Si     0.828033333333     0.555733333333     0.381200000000     0          
T        Si     0.883400000000     0.467166666667     0.250600000000     0          
T        Si     0.835633333333     0.609700000000     0.207200000000     0          
T        Si     0.718266666667     0.619766666667     0.694600000000     0          
T        Si     0.681766666667     0.547800000000     0.536100000000     0          
T        Si     0.733066666667     0.472700000000     0.671300000000     0          
T        Si     0.994700000000     0.444266666667     0.881200000000     0          
T        Si     0.716733333333     0.532833333333     0.750600000000     0          
T        Si     0.668966666667     0.390300000000     0.707200000000     0          
T        Si     0.948400000000     0.380233333333     0.944600000000     0          
T        Si     0.984900000000     0.452200000000     0.786100000000     0          
T        Si     0.933600000000     0.527300000000     0.921300000000     0          
T        Si     0.671966666667     0.555733333333     0.631200000000     0          
T        Si     0.949933333333     0.467166666667     0.500600000000     0          
T        Si     0.997700000000     0.609700000000     0.957200000000     0          
T        Si     0.781733333333     0.619766666667     0.944600000000     0          
T        Si     0.818233333333     0.547800000000     0.786100000000     0          
T        Si     0.766933333333     0.472700000000     0.921300000000     0          
T        Si     0.838633333333     0.444266666667     0.631200000000     0          
T        Si     0.783266666667     0.532833333333     0.500600000000     0          
T        Si     0.831033333333     0.390300000000     0.957200000000     0          
T        Si     0.884933333333     0.380233333333     0.694600000000     0          
T        Si     0.848433333333     0.452200000000     0.536100000000     0          
T        Si     0.899733333333     0.527300000000     0.671300000000     0          
T        Si     0.828033333333     0.555733333333     0.881200000000     0          
T        Si     0.883400000000     0.467166666667     0.750600000000     0          
T        Si     0.835633333333     0.609700000000     0.707200000000     0          
T        Si     0.718266666667     0.953100000000     0.194600000000     0          
T        Si     0.681766666667     0.881133333333     0.036100000000     0          
T        Si     0.733066666667     0.806033333333     0.171300000000     0          
T        Si     0.994700000000     0.777600000000     0.381200000000     0          
T        Si     0.716733333333     0.866166666667     0.250600000000     0          
T        Si     0.668966666667     0.723633333333     0.207200000000     0          
T        Si     0.948400000000     0.713566666667     0.444600000000     0          
T        Si     0.984900000000     0.785533333333     0.286100000000     0          
T        Si     0.933600000000     0.860633333333     0.421300000000     0          
T        Si     0.671966666667     0.889066666667     0.131200000000     0          
T        Si     0.949933333333     0.800500000000     0.000600000000     0          
T        Si     0.997700000000     0.943033333333     0.457200000000     0          
T        Si     0.781733333333     0.953100000000     0.444600000000     0          
T        Si     0.818233333333     0.881133333333     0.286100000000     0          
T        Si     0.766933333333     0.806033333333     0.421300000000     0          
T        Si     0.838633333333     0.777600000000     0.131200000000     0          
T        Si     0.783266666667     0.866166666667     0.000600000000     0          
T        Si     0.831033333333     0.723633333333     0.457200000000     0          
T        Si     0.884933333333     0.713566666667     0.194600000000     0          
T        Si     0.848433333333     0.785533333333     0.036100000000     0          
T        Si     0.899733333333     0.860633333333     0.171300000000     0          
T        Si     0.828033333333     0.889066666667     0.381200000000     0          
T        Si     0.883400000000     0.800500000000     0.250600000000     0          
T        Si     0.835633333333     0.943033333333     0.207200000000     0          
T        Si     0.718266666667     0.953100000000     0.694600000000     0          
T        Si     0.681766666667     0.881133333333     0.536100000000     0          
T        Si     0.733066666667     0.806033333333     0.671300000000     0          
T        Si     0.994700000000     0.777600000000     0.881200000000     0          
T        Si     0.716733333333     0.866166666667     0.750600000000     0          
T        Si     0.668966666667     0.723633333333     0.707200000000     0          
T        Si     0.948400000000     0.713566666667     0.944600000000     0          
T        Si     0.984900000000     0.785533333333     0.786100000000     0          
T        Si     0.933600000000     0.860633333333     0.921300000000     0          
T        Si     0.671966666667     0.889066666667     0.631200000000     0          
T        Si     0.949933333333     0.800500000000     0.500600000000     0          
T        Si     0.997700000000     0.943033333333     0.957200000000     0          
T        Si     0.781733333333     0.953100000000     0.944600000000     0          
T        Si     0.818233333333     0.881133333333     0.786100000000     0          
T        Si     0.766933333333     0.806033333333     0.921300000000     0          
T        Si     0.838633333333     0.777600000000     0.631200000000     0          
T        Si     0.783266666667     0.866166666667     0.500600000000     0          
T        Si     0.831033333333     0.723633333333     0.957200000000     0          
T        Si     0.884933333333     0.713566666667     0.694600000000     0          
T        Si     0.848433333333     0.785533333333     0.536100000000     0          
T        Si     0.899733333333     0.860633333333     0.671300000000     0          
T        Si     0.828033333333     0.889066666667     0.881200000000     0          
T        Si     0.883400000000     0.800500000000     0.750600000000     0          
T        Si     0.835633333333     0.943033333333     0.707200000000     0          
O        O      0.111733333333     0.285233333333     0.193750000000     0          
O        O      0.031033333333     0.248500000000     0.228600000000     0          
O        O      0.030066666667     0.271000000000     0.149750000000     0          
O        O      0.032533333333     0.006600000000     0.206350000000     0          
O        O      0.047133333333     0.120700000000     0.404200000000     0          
O        O      0.290366666667     0.155433333333     0.389200000000     0          
O        O      0.003933333333     0.105033333333     0.332050000000     0          
O        O      0.328666666667     0.254166666667     0.003400000000     0          
O        O      0.075333333333     0.213533333333     0.035000000000     0          
O        O      0.328700000000     0.161500000000     0.023200000000     0          
O        O      0.028500000000     0.094333333333     0.175550000000     0          
O        O      0.074166666667     0.164466666667     0.216000000000     0          
O        O      0.221600000000     0.048100000000     0.443750000000     0          
O        O      0.302300000000     0.084833333333     0.478600000000     0          
O        O      0.303266666667     0.062333333333     0.399750000000     0          
O        O      0.300800000000     0.326733333333     0.456350000000     0          
O        O      0.286200000000     0.212633333333     0.154200000000     0          
O        O      0.042966666667     0.177900000000     0.139200000000     0          
O        O      0.329400000000     0.228300000000     0.082050000000     0          
O        O      0.004666666667     0.079166666667     0.253400000000     0          
O        O      0.258000000000     0.119800000000     0.285000000000     0          
O        O      0.004633333333     0.171833333333     0.273200000000     0          
O        O      0.304833333333     0.239000000000     0.425550000000     0          
O        O      0.259166666667     0.168866666667     0.466000000000     0          
O        O      0.054933333333     0.285233333333     0.443750000000     0          
O        O      0.135633333333     0.248500000000     0.478600000000     0          
O        O      0.136600000000     0.271000000000     0.399750000000     0          
O        O      0.134133333333     0.006600000000     0.456350000000     0          
O        O      0.119533333333     0.120700000000     0.154200000000     0          
O        O      0.209633333333     0.155433333333     0.139200000000     0          
O        O      0.162733333333     0.105033333333     0.082050000000     0          
O        O      0.171333333333     0.254166666667     0.253400000000     0          
O        O      0.091333333333     0.213533333333     0.285000000000     0          
O        O      0.171300000000     0.161500000000     0.273200000000     0          
O        O      0.138166666667     0.094333333333     0.425550000000     0          
O        O      0.092500000000     0.164466666667     0.466000000000     0          
O        O      0.278400000000     0.048100000000     0.193750000000     0          
O        O      0.197700000000     0.084833333333     0.228600000000     0          
O        O      0.196733333333     0.062333333333     0.149750000000     0          
O        O      0.199200000000     0.326733333333     0.206350000000     0          
O        O      0.213800000000     0.212633333333     0.404200000000     0          
O        O      0.123700000000     0.177900000000     0.389200000000     0          
O        O      0.170600000000     0.228300000000     0.332050000000     0          
O        O      0.162000000000     0.079166666667     0.003400000000     0          
O        O      0.242000000000     0.119800000000     0.035000000000     0          
O        O      0.162033333333     0.171833333333     0.023200000000     0          
O        O      0.195166666667     0.239000000000     0.175550000000     0          
O        O      0.240833333333     0.168866666667     0.216000000000     0          
O        O      0.111733333333     0.285233333333     0.693750000000     0          
O        O      0.031033333333     0.248500000000     0.728600000000     0          
O        O      0.030066666667     0.271000000000     0.649750000000     0          
O        O      0.032533333333     0.006600000000     0.706350000000     0          
O        O      0.047133333333     0.120700000000     0.904200000000     0          
O        O      0.290366666667     0.155433333333     0.889200000000     0          
O        O      0.003933333333     0.105033333333     0.832050000000     0          
O        O      0.328666666667     0.254166666667     0.503400000000     0          
O        O      0.075333333333     0.213533333333     0.535000000000     0          
O        O      0.328700000000     0.161500000000     0.523200000000     0          
O        O      0.028500000000     0.094333333333     0.675550000000     0          
O        O      0.074166666667     0.164466666667     0.716000000000     0          
O        O      0.221600000000     0.048100000000     0.943750000000     0          
O        O      0.302300000000     0.084833333333     0.978600000000     0          
O        O      0.303266666667     0.062333333333     0.899750000000     0          
O        O      0.300800000000     0.326733333333     0.956350000000     0          
O        O      0.286200000000     0.212633333333     0.654200000000     0          
O        O      0.042966666667     0.177900000000     0.639200000000     0          
O        O      0.329400000000     0.228300000000     0.582050000000     0          
O        O      0.004666666667     0.079166666667     0.753400000000     0          
O        O      0.258000000000     0.119800000000     0.785000000000     0          
O        O      0.004633333333     0.171833333333     0.773200000000     0          
O        O      0.304833333333     0.239000000000     0.925550000000     0          
O        O      0.259166666667     0.168866666667     0.966000000000     0          
O        O      0.054933333333     0.285233333333     0.943750000000     0          
O        O      0.135633333333     0.248500000000     0.978600000000     0          
O        O      0.136600000000     0.271000000000     0.899750000000     0          
O        O      0.134133333333     0.006600000000     0.956350000000     0          
O        O      0.119533333333     0.120700000000     0.654200000000     0          
O        O      0.209633333333     0.155433333333     0.639200000000     0          
O        O      0.162733333333     0.105033333333     0.582050000000     0          
O        O      0.171333333333     0.254166666667     0.753400000000     0          
O        O      0.091333333333     0.213533333333     0.785000000000     0          
O        O      0.171300000000     0.161500000000     0.773200000000     0          
O        O      0.138166666667     0.094333333333     0.925550000000     0          
O        O      0.092500000000     0.164466666667     0.966000000000     0          
O        O      0.278400000000     0.048100000000     0.693750000000     0          
O        O      0.197700000000     0.084833333333     0.728600000000     0          
O        O      0.196733333333     0.062333333333     0.649750000000     0          
O        O      0.199200000000     0.326733333333     0.706350000000     0          
O        O      0.213800000000     0.212633333333     0.904200000000     0          
O        O      0.123700000000     0.177900000000     0.889200000000     0          
O        O      0.170600000000     0.228300000000     0.832050000000     0          
O        O      0.162000000000     0.079166666667     0.503400000000     0          
O        O      0.242000000000     0.119800000000     0.535000000000     0          
O        O      0.162033333333     0.171833333333     0.523200000000     0          
O        O      0.195166666667     0.239000000000     0.675550000000     0          
O        O      0.240833333333     0.168866666667     0.716000000000     0          
O        O      0.111733333333     0.618566666667     0.193750000000     0          
O        O      0.031033333333     0.581833333333     0.228600000000     0          
O        O      0.030066666667     0.604333333333     0.149750000000     0          
O        O      0.032533333333     0.339933333333     0.206350000000     0          
O        O      0.047133333333     0.454033333333     0.404200000000     0          
O        O      0.290366666667     0.488766666667     0.389200000000     0          
O        O      0.003933333333     0.438366666667     0.332050000000     0          
O        O      0.328666666667     0.587500000000     0.003400000000     0          
O        O      0.075333333333     0.546866666667     0.035000000000     0          
O        O      0.328700000000     0.494833333333     0.023200000000     0          
O        O      0.028500000000     0.427666666667     0.175550000000     0          
O        O      0.074166666667     0.497800000000     0.216000000000     0          
O        O      0.221600000000     0.381433333333     0.443750000000     0          
O        O      0.302300000000     0.418166666667     0.478600000000     0          
O        O      0.303266666667     0.395666666667     0.399750000000     0          
O        O      0.300800000000     0.660066666667     0.456350000000     0          
O        O      0.286200000000     0.545966666667     0.154200000000     0          
O        O      0.042966666667     0.511233333333     0.139200000000     0          
O        O      0.329400000000     0.561633333333     0.082050000000     0          
O        O      0.004666666667     0.412500000000     0.253400000000     0          
O        O      0.258000000000     0.453133333333     0.285000000000     0          
O        O      0.004633333333     0.505166666667     0.273200000000     0          
O        O      0.304833333333     0.572333333333     0.425550000000     0          
O        O      0.259166666667     0.502200000000     0.466000000000     0          
O        O      0.054933333333     0.618566666667     0.443750000000     0          
O        O      0.135633333333     0.581833333333     0.478600000000     0          
O        O      0.136600000000     0.604333333333     0.399750000000     0          
O        O      0.134133333333     0.339933333333     0.456350000000     0          
O        O      0.119533333333     0.454033333333     0.154200000000     0          
O        O      0.209633333333     0.488766666667     0.139200000000     0          
O        O      0.162733333333     0.438366666667     0.082050000000     0          
O        O      0.171333333333     0.587500000000     0.253400000000     0          
O        O      0.091333333333     0.546866666667     0.285000000000     0          
O        O      0.171300000000     0.494833333333     0.273200000000     0          
O        O      0.138166666667     0.427666666667     0.425550000000     0          
O        O      0.092500000000     0.497800000000     0.466000000000     0          
O        O      0.278400000000     0.381433333333     0.193750000000     0          
O        O      0.197700000000     0.418166666667     0.228600000000     0          
O        O      0.196733333333     0.395666666667     0.149750000000     0          
O        O      0.199200000000     0.660066666667     0.206350000000     0          
O        O      0.213800000000     0.545966666667     0.404200000000     0          
O        O      0.123700000000     0.511233333333     0.389200000000     0          
O        O      0.170600000000     0.561633333333     0.332050000000     0          
O        O      0.162000000000     0.412500000000     0.003400000000     0          
O        O      0.242000000000     0.453133333333     0.035000000000     0          
O        O      0.162033333333     0.505166666667     0.023200000000     0          
O        O      0.195166666667     0.572333333333     0.175550000000     0          
O        O      0.240833333333     0.502200000000     0.216000000000     0          
O        O      0.111733333333     0.618566666667     0.693750000000     0          
O        O      0.031033333333     0.581833333333     0.728600000000     0          
O        O      0.030066666667     0.604333333333     0.649750000000     0          
O        O      0.032533333333     0.339933333333     0.706350000000     0          
O        O      0.047133333333     0.454033333333     0.904200000000     0          
O        O      0.290366666667     0.488766666667     0.889200000000     0          
O        O      0.003933333333     0.438366666667     0.832050000000     0          
O        O      0.328666666667     0.587500000000     0.503400000000     0          
O        O      0.075333333333     0.546866666667     0.535000000000     0          
O        O      0.328700000000     0.494833333333     0.523200000000     0          
O        O      0.028500000000     0.427666666667     0.675550000000     0          
O        O      0.074166666667     0.497800000000     0.716000000000     0          
O        O      0.221600000000     0.381433333333     0.943750000000     0          
O        O      0.302300000000     0.418166666667     0.978600000000     0          
O        O      0.303266666667     0.395666666667     0.899750000000     0          
O        O      0.300800000000     0.660066666667     0.956350000000     0          
O        O      0.286200000000     0.545966666667     0.654200000000     0          
O        O      0.042966666667     0.511233333333     0.639200000000     0          
O        O      0.329400000000     0.561633333333     0.582050000000     0          
O        O      0.004666666667     0.412500000000     0.753400000000     0          
O        O      0.258000000000     0.453133333333     0.785000000000     0          
O        O      0.004633333333     0.505166666667     0.773200000000     0          
O        O      0.304833333333     0.572333333333     0.925550000000     0          
O        O      0.259166666667     0.502200000000     0.966000000000     0          
O        O      0.054933333333     0.618566666667     0.943750000000     0          
O        O      0.135633333333     0.581833333333     0.978600000000     0          
O        O      0.136600000000     0.604333333333     0.899750000000     0          
O        O      0.134133333333     0.339933333333     0.956350000000     0          
O        O      0.119533333333     0.454033333333     0.654200000000     0          
O        O      0.209633333333     0.488766666667     0.639200000000     0          
O        O      0.162733333333     0.438366666667     0.582050000000     0          
O        O      0.171333333333     0.587500000000     0.753400000000     0          
O        O      0.091333333333     0.546866666667     0.785000000000     0          
O        O      0.171300000000     0.494833333333     0.773200000000     0          
O        O      0.138166666667     0.427666666667     0.925550000000     0          
O        O      0.092500000000     0.497800000000     0.966000000000     0          
O        O      0.278400000000     0.381433333333     0.693750000000     0          
O        O      0.197700000000     0.418166666667     0.728600000000     0          
O        O      0.196733333333     0.395666666667     0.649750000000     0          
O        O      0.199200000000     0.660066666667     0.706350000000     0          
O        O      0.213800000000     0.545966666667     0.904200000000     0          
O        O      0.123700000000     0.511233333333     0.889200000000     0          
O        O      0.170600000000     0.561633333333     0.832050000000     0          
O        O      0.162000000000     0.412500000000     0.503400000000     0          
O        O      0.242000000000     0.453133333333     0.535000000000     0          
O        O      0.162033333333     0.505166666667     0.523200000000     0          
O        O      0.195166666667     0.572333333333     0.675550000000     0          
O        O      0.240833333333     0.502200000000     0.716000000000     0          
O        O      0.111733333333     0.951900000000     0.193750000000     0          
O        O      0.031033333333     0.915166666667     0.228600000000     0          
O        O      0.030066666667     0.937666666667     0.149750000000     0          
O        O      0.032533333333     0.673266666667     0.206350000000     0          
O        O      0.047133333333     0.787366666667     0.404200000000     0          
O        O      0.290366666667     0.822100000000     0.389200000000     0          
O        O      0.003933333333     0.771700000000     0.332050000000     0          
O        O      0.328666666667     0.920833333333     0.003400000000     0          
O        O      0.075333333333     0.880200000000     0.035000000000     0          
O        O      0.328700000000     0.828166666667     0.023200000000     0          
O        O      0.028500000000     0.761000000000     0.175550000000     0          
O        O      0.074166666667     0.831133333333     0.216000000000     0          
O        O      0.221600000000     0.714766666667     0.443750000000     0          
O        O      0.302300000000     0.751500000000     0.478600000000     0          
O        O      0.303266666667     0.729000000000     0.399750000000     0          
O        O      0.300800000000     0.993400000000     0.456350000000     0          
O        O      0.286200000000     0.879300000000     0.154200000000     0          
O        O      0.042966666667     0.844566666667     0.139200000000     0          
O        O      0.329400000000     0.894966666667     0.082050000000     0          
O        O      0.004666666667     0.745833333333     0.253400000000     0          
O        O      0.258000000000     0.786466666667     0.285000000000     0          
O        O      0.004633333333     0.838500000000     0.273200000000     0          
O        O      0.304833333333     0.905666666667     0.425550000000     0          
O        O      0.259166666667     0.835533333333     0.466000000000     0          
O        O      0.054933333333     0.951900000000     0.443750000000     0          
O        O      0.135633333333     0.915166666667     0.478600000000     0          
O        O      0.136600000000     0.937666666667     0.399750000000     0          
O        O      0.134133333333     0.673266666667     0.456350000000     0          
O        O      0.119533333333     0.787366666667     0.154200000000     0          
O        O      0.209633333333     0.822100000000     0.139200000000     0          
O        O      0.162733333333     0.771700000000     0.082050000000     0          
O        O      0.171333333333     0.920833333333     0.253400000000     0          
O        O      0.091333333333     0.880200000000     0.285000000000     0          
O        O      0.171300000000     0.828166666667     0.273200000000     0          
O        O      0.138166666667     0.761000000000     0.425550000000     0          
O        O      0.092500000000     0.831133333333     0.466000000000     0          
O        O      0.278400000000     0.714766666667     0.193750000000     0          
O        O      0.197700000000     0.751500000000     0.228600000000     0          
O        O      0.196733333333     0.729000000000     0.149750000000     0          
O        O      0.199200000000     0.993400000000     0.206350000000     0          
O        O      0.213800000000     0.879300000000     0.404200000000     0          
O        O      0.123700000000     0.844566666667     0.389200000000     0          
O        O      0.170600000000     0.894966666667     0.332050000000     0          
O        O      0.162000000000     0.745833333333     0.003400000000     0          
O        O      0.242000000000     0.786466666667     0.035000000000     0          
O        O      0.162033333333     0.838500000000     0.023200000000     0          
O        O      0.195166666667     0.905666666667     0.175550000000     0          
O        O      0.240833333333     0.835533333333     0.216000000000     0          
O        O      0.111733333333     0.951900000000     0.693750000000     0          
O        O      0.031033333333     0.915166666667     0.728600000000     0          
O        O      0.030066666667     0.937666666667     0.649750000000     0          
O        O      0.032533333333     0.673266666667     0.706350000000     0          
O        O      0.047133333333     0.787366666667     0.904200000000     0          
O        O      0.290366666667     0.822100000000     0.889200000000     0          
O        O      0.003933333333     0.771700000000     0.832050000000     0          
O        O      0.328666666667     0.920833333333     0.503400000000     0          
O        O      0.075333333333     0.880200000000     0.535000000000     0          
O        O      0.328700000000     0.828166666667     0.523200000000     0          
O        O      0.028500000000     0.761000000000     0.675550000000     0          
O        O      0.074166666667     0.831133333333     0.716000000000     0          
O        O      0.221600000000     0.714766666667     0.943750000000     0          
O        O      0.302300000000     0.751500000000     0.978600000000     0          
O        O      0.303266666667     0.729000000000     0.899750000000     0          
O        O      0.300800000000     0.993400000000     0.956350000000     0          
O        O      0.286200000000     0.879300000000     0.654200000000     0          
O        O      0.042966666667     0.844566666667     0.639200000000     0          
O        O      0.329400000000     0.894966666667     0.582050000000     0          
O        O      0.004666666667     0.745833333333     0.753400000000     0          
O        O      0.258000000000     0.786466666667     0.785000000000     0          
O        O      0.004633333333     0.838500000000     0.773200000000     0          
O        O      0.304833333333     0.905666666667     0.925550000000     0          
O        O      0.259166666667     0.835533333333     0.966000000000     0          
O        O      0.054933333333     0.951900000000     0.943750000000     0          
O        O      0.135633333333     0.915166666667     0.978600000000     0          
O        O      0.136600000000     0.937666666667     0.899750000000     0          
O        O      0.134133333333     0.673266666667     0.956350000000     0          
O        O      0.119533333333     0.787366666667     0.654200000000     0          
O        O      0.209633333333     0.822100000000     0.639200000000     0          
O        O      0.162733333333     0.771700000000     0.582050000000     0          
O        O      0.171333333333     0.920833333333     0.753400000000     0          
O        O      0.091333333333     0.880200000000     0.785000000000     0          
O        O      0.171300000000     0.828166666667     0.773200000000     0          
O        O      0.138166666667     0.761000000000     0.925550000000     0          
O        O      0.092500000000     0.831133333333     0.966000000000     0          
O        O      0.278400000000     0.714766666667     0.693750000000     0          
O        O      0.197700000000     0.751500000000     0.728600000000     0          
O        O      0.196733333333     0.729000000000     0.649750000000     0          
O        O      0.199200000000     0.993400000000     0.706350000000     0          
O        O      0.213800000000     0.879300000000     0.904200000000     0          
O        O      0.123700000000     0.844566666667     0.889200000000     0          
O        O      0.170600000000     0.894966666667     0.832050000000     0          
O        O      0.162000000000     0.745833333333     0.503400000000     0          
O        O      0.242000000000     0.786466666667     0.535000000000     0          
O        O      0.162033333333     0.838500000000     0.523200000000     0          
O        O      0.195166666667     0.905666666667     0.675550000000     0          
O        O      0.240833333333     0.835533333333     0.716000000000     0          
O        O      0.445066666667     0.285233333333     0.193750000000     0          
O        O      0.364366666667     0.248500000000     0.228600000000     0          
O        O      0.363400000000     0.271000000000     0.149750000000     0          
O        O      0.365866666667     0.006600000000     0.206350000000     0          
O        O      0.380466666667     0.120700000000     0.404200000000     0          
O        O      0.623700000000     0.155433333333     0.389200000000     0          
O        O      0.337266666667     0.105033333333     0.332050000000     0          
O        O      0.662000000000     0.254166666667     0.003400000000     0          
O        O      0.408666666667     0.213533333333     0.035000000000     0          
O        O      0.662033333333     0.161500000000     0.023200000000     0          
O        O      0.361833333333     0.094333333333     0.175550000000     0          
O        O      0.407500000000     0.164466666667     0.216000000000     0          
O        O      0.554933333333     0.048100000000     0.443750000000     0          
O        O      0.635633333333     0.084833333333     0.478600000000     0          
O        O      0.636600000000     0.062333333333     0.399750000000     0          
O        O      0.634133333333     0.326733333333     0.456350000000     0          
O        O      0.619533333333     0.212633333333     0.154200000000     0          
O        O      0.376300000000     0.177900000000     0.139200000000     0          
O        O      0.662733333333     0.228300000000     0.082050000000     0          
O        O      0.338000000000     0.079166666667     0.253400000000     0          
O        O      0.591333333333     0.119800000000     0.285000000000     0          
O        O      0.337966666667     0.171833333333     0.273200000000     0          
O        O      0.638166666667     0.239000000000     0.425550000000     0          
O        O      0.592500000000     0.168866666667     0.466000000000     0          
O        O      0.388266666667     0.285233333333     0.443750000000     0          
O        O      0.468966666667     0.248500000000     0.478600000000     0          
O        O      0.469933333333     0.271000000000     0.399750000000     0          
O        O      0.467466666667     0.006600000000     0.456350000000     0          
O        O      0.452866666667     0.120700000000     0.154200000000     0          
O        O      0.542966666667     0.155433333333     0.139200000000     0          
O        O      0.496066666667     0.105033333333     0.082050000000     0          
O        O      0.504666666667     0.254166666667     0.253400000000     0          
O        O      0.424666666667     0.213533333333     0.285000000000     0          
O        O      0.504633333333     0.161500000000     0.273200000000     0          
O        O      0.471500000000     0.094333333333     0.425550000000     0          
O        O      0.425833333333     0.164466666667     0.466000000000     0          
O        O      0.611733333333     0.048100000000     0.193750000000     0          
O        O      0.531033333333     0.084833333333     0.228600000000     0          
O        O      0.530066666667     0.062333333333     0.149750000000     0          
O        O      0.532533333333     0.326733333333     0.206350000000     0          
O        O      0.547133333333     0.212633333333     0.404200000000     0          
O        O      0.457033333333     0.177900000000     0.389200000000     0          
O        O      0.503933333333     0.228300000000     0.332050000000     0          
O        O      0.495333333333     0.079166666667     0.003400000000     0          
O        O      0.575333333333     0.119800000000     0.035000000000     0          
O        O      0.495366666667     0.171833333333     0.023200000000     0          
O        O      0.528500000000     0.239000000000     0.175550000000     0          
O        O      0.574166666667     0.168866666667     0.216000000000     0          
O        O      0.445066666667     0.285233333333     0.693750000000     0          
O        O      0.364366666667     0.248500000000     0.728600000000     0          
O        O      0.363400000000     0.271000000000     0.649750000000     0          
O        O      0.365866666667     0.006600000000     0.706350000000     0          
O        O      0.380466666667     0.120700000000     0.904200000000     0          
O        O      0.623700000000     0.155433333333     0.889200000000     0          
O        O      0.337266666667     0.105033333333     0.832050000000     0          
O        O      0.662000000000     0.254166666667     0.503400000000     0          
O        O      0.408666666667     0.213533333333     0.535000000000     0          
O        O      0.662033333333     0.161500000000     0.523200000000     0          
O        O      0.361833333333     0.094333333333     0.675550000000     0          
O        O      0.407500000000     0.164466666667     0.716000000000     0          
O        O      0.554933333333     0.048100000000     0.943750000000     0          
O        O      0.635633333333     0.084833333333     0.978600000000     0          
O        O      0.636600000000     0.062333333333     0.899750000000     0          
O        O      0.634133333333     0.326733333333     0.956350000000     0          
O        O      0.619533333333     0.212633333333     0.654200000000     0          
O        O      0.376300000000     0.177900000000     0.639200000000     0          
O        O      0.662733333333     0.228300000000     0.582050000000     0          
O        O      0.338000000000     0.079166666667     0.753400000000     0          
O        O      0.591333333333     0.119800000000     0.785000000000     0          
O        O      0.337966666667     0.171833333333     0.773200000000     0          
O        O      0.638166666667     0.239000000000     0.925550000000     0          
O        O      0.592500000000     0.168866666667     0.966000000000     0          
O        O      0.388266666667     0.285233333333     0.943750000000     0          
O        O      0.468966666667     0.248500000000     0.978600000000     0          
O        O      0.469933333333     0.271000000000     0.899750000000     0          
O        O      0.467466666667     0.006600000000     0.956350000000     0          
O        O      0.452866666667     0.120700000000     0.654200000000     0          
O        O      0.542966666667     0.155433333333     0.639200000000     0          
O        O      0.496066666667     0.105033333333     0.582050000000     0          
O        O      0.504666666667     0.254166666667     0.753400000000     0          
O        O      0.424666666667     0.213533333333     0.785000000000     0          
O        O      0.504633333333     0.161500000000     0.773200000000     0          
O        O      0.471500000000     0.094333333333     0.925550000000     0          
O        O      0.425833333333     0.164466666667     0.966000000000     0          
O        O      0.611733333333     0.048100000000     0.693750000000     0          
O        O      0.531033333333     0.084833333333     0.728600000000     0          
O        O      0.530066666667     0.062333333333     0.649750000000     0          
O        O      0.532533333333     0.326733333333     0.706350000000     0          
O        O      0.547133333333     0.212633333333     0.904200000000     0          
O        O      0.457033333333     0.177900000000     0.889200000000     0          
O        O      0.503933333333     0.228300000000     0.832050000000     0          
O        O      0.495333333333     0.079166666667     0.503400000000     0          
O        O      0.575333333333     0.119800000000     0.535000000000     0          
O        O      0.495366666667     0.171833333333     0.523200000000     0          
O        O      0.528500000000     0.239000000000     0.675550000000     0          
O        O      0.574166666667     0.168866666667     0.716000000000     0          
O        O      0.445066666667     0.618566666667     0.193750000000     0          
O        O      0.364366666667     0.581833333333     0.228600000000     0          
O        O      0.363400000000     0.604333333333     0.149750000000     0          
O        O      0.365866666667     0.339933333333     0.206350000000     0          
O        O      0.380466666667     0.454033333333     0.404200000000     0          
O        O      0.623700000000     0.488766666667     0.389200000000     0          
O        O      0.337266666667     0.438366666667     0.332050000000     0          
O        O      0.662000000000     0.587500000000     0.003400000000     0          
O        O      0.408666666667     0.546866666667     0.035000000000     0          
O        O      0.662033333333     0.494833333333     0.023200000000     0          
O        O      0.361833333333     0.427666666667     0.175550000000     0          
O        O      0.407500000000     0.497800000000     0.216000000000     0          
O        O      0.554933333333     0.381433333333     0.443750000000     0          
O        O      0.635633333333     0.418166666667     0.478600000000     0          
O        O      0.636600000000     0.395666666667     0.399750000000     0          
O        O      0.634133333333     0.660066666667     0.456350000000     0          
O        O      0.619533333333     0.545966666667     0.154200000000     0          
O        O      0.376300000000     0.511233333333     0.139200000000     0          
O        O      0.662733333333     0.561633333333     0.082050000000     0          
O        O      0.338000000000     0.412500000000     0.253400000000     0          
O        O      0.591333333333     0.453133333333     0.285000000000     0          
O        O      0.337966666667     0.505166666667     0.273200000000     0          
O        O      0.638166666667     0.572333333333     0.425550000000     0          
O        O      0.592500000000     0.502200000000     0.466000000000     0          
O        O      0.388266666667     0.618566666667     0.443750000000     0          
O        O      0.468966666667     0.581833333333     0.478600000000     0          
O        O      0.469933333333     0.604333333333     0.399750000000     0          
O        O      0.467466666667     0.339933333333     0.456350000000     0          
O        O      0.452866666667     0.454033333333     0.154200000000     0          
O        O      0.542966666667     0.488766666667     0.139200000000     0          
O        O      0.496066666667     0.438366666667     0.082050000000     0          
O        O      0.504666666667     0.587500000000     0.253400000000     0          
O        O      0.424666666667     0.546866666667     0.285000000000     0          
O        O      0.504633333333     0.494833333333     0.273200000000     0          
O        O      0.471500000000     0.427666666667     0.425550000000     0          
O        O      0.425833333333     0.497800000000     0.466000000000     0          
O        O      0.611733333333     0.381433333333     0.193750000000     0          
O        O      0.531033333333     0.418166666667     0.228600000000     0          
O        O      0.530066666667     0.395666666667     0.149750000000     0          
O        O      0.532533333333     0.660066666667     0.206350000000     0          
O        O      0.547133333333     0.545966666667     0.404200000000     0          
O        O      0.457033333333     0.511233333333     0.389200000000     0          
O        O      0.503933333333     0.561633333333     0.332050000000     0          
O        O      0.495333333333     0.412500000000     0.003400000000     0          
O        O      0.575333333333     0.453133333333     0.035000000000     0          
O        O      0.495366666667     0.505166666667     0.023200000000     0          
O        O      0.528500000000     0.572333333333     0.175550000000     0          
O        O      0.574166666667     0.502200000000     0.216000000000     0          
O        O      0.445066666667     0.618566666667     0.693750000000     0          
O        O      0.364366666667     0.581833333333     0.728600000000     0          
O        O      0.363400000000     0.604333333333     0.649750000000     0          
O        O      0.365866666667     0.339933333333     0.706350000000     0          
O        O      0.380466666667     0.454033333333     0.904200000000     0          
O        O      0.623700000000     0.488766666667     0.889200000000     0          
O        O      0.337266666667     0.438366666667     0.832050000000     0          
O        O      0.662000000000     0.587500000000     0.503400000000     0          
O        O      0.408666666667     0.546866666667     0.535000000000     0          
O        O      0.662033333333     0.494833333333     0.523200000000     0          
O        O      0.361833333333     0.427666666667     0.675550000000     0          
O        O      0.407500000000     0.497800000000     0.716000000000     0          
O        O      0.554933333333     0.381433333333     0.943750000000     0          
O        O      0.635633333333     0.418166666667     0.978600000000     0          
O        O      0.636600000000     0.395666666667     0.899750000000     0          
O        O      0.634133333333     0.660066666667     0.956350000000     0          
O        O      0.619533333333     0.545966666667     0.654200000000     0          
O        O      0.376300000000     0.511233333333     0.639200000000     0          
O        O      0.662733333333     0.561633333333     0.582050000000     0          
O        O      0.338000000000     0.412500000000     0.753400000000     0          
O        O      0.591333333333     0.453133333333     0.785000000000     0          
O        O      0.337966666667     0.505166666667     0.773200000000     0          
O        O      0.638166666667     0.572333333333     0.925550000000     0          
O        O      0.592500000000     0.502200000000     0.966000000000     0          
O        O      0.388266666667     0.618566666667     0.943750000000     0          
O        O      0.468966666667     0.581833333333     0.978600000000     0          
O        O      0.469933333333     0.604333333333     0.899750000000     0          
O        O      0.467466666667     0.339933333333     0.956350000000     0          
O        O      0.452866666667     0.454033333333     0.654200000000     0          
O        O      0.542966666667     0.488766666667     0.639200000000     0          
O        O      0.496066666667     0.438366666667     0.582050000000     0          
O        O      0.504666666667     0.587500000000     0.753400000000     0          
O        O      0.424666666667     0.546866666667     0.785000000000     0          
O        O      0.504633333333     0.494833333333     0.773200000000     0          
O        O      0.471500000000     0.427666666667     0.925550000000     0          
O        O      0.425833333333     0.497800000000     0.966000000000     0          
O        O      0.611733333333     0.381433333333     0.693750000000     0          
O        O      0.531033333333     0.418166666667     0.728600000000     0          
O        O      0.530066666667     0.395666666667     0.649750000000     0          
O        O      0.532533333333     0.660066666667     0.706350000000     0          
O        O      0.547133333333     0.545966666667     0.904200000000     0          
O        O      0.457033333333     0.511233333333     0.889200000000     0          
O        O      0.503933333333     0.561633333333     0.832050000000     0          
O        O      0.495333333333     0.412500000000     0.503400000000     0          
O        O      0.575333333333     0.453133333333     0.535000000000     0          
O        O      0.495366666667     0.505166666667     0.523200000000     0          
O        O      0.528500000000     0.572333333333     0.675550000000     0          
O        O      0.574166666667     0.502200000000     0.716000000000     0          
O        O      0.445066666667     0.951900000000     0.193750000000     0          
O        O      0.364366666667     0.915166666667     0.228600000000     0          
O        O      0.363400000000     0.937666666667     0.149750000000     0          
O        O      0.365866666667     0.673266666667     0.206350000000     0          
O        O      0.380466666667     0.787366666667     0.404200000000     0          
O        O      0.623700000000     0.822100000000     0.389200000000     0          
O        O      0.337266666667     0.771700000000     0.332050000000     0          
O        O      0.662000000000     0.920833333333     0.003400000000     0          
O        O      0.408666666667     0.880200000000     0.035000000000     0          
O        O      0.662033333333     0.828166666667     0.023200000000     0          
O        O      0.361833333333     0.761000000000     0.175550000000     0          
O        O      0.407500000000     0.831133333333     0.216000000000     0          
O        O      0.554933333333     0.714766666667     0.443750000000     0          
O        O      0.635633333333     0.751500000000     0.478600000000     0          
O        O      0.636600000000     0.729000000000     0.399750000000     0          
O        O      0.634133333333     0.993400000000     0.456350000000     0          
O        O      0.619533333333     0.879300000000     0.154200000000     0          
O        O      0.376300000000     0.844566666667     0.139200000000     0          
O        O      0.662733333333     0.894966666667     0.082050000000     0          
O        O      0.338000000000     0.745833333333     0.253400000000     0          
O        O      0.591333333333     0.786466666667     0.285000000000     0          
O        O      0.337966666667     0.838500000000     0.273200000000     0          
O        O      0.638166666667     0.905666666667     0.425550000000     0          
O        O      0.592500000000     0.835533333333     0.466000000000     0          
O        O      0.388266666667     0.951900000000     0.443750000000     0          
O        O      0.468966666667     0.915166666667     0.478600000000     0          
O        O      0.469933333333     0.937666666667     0.399750000000     0          
O        O      0.467466666667     0.673266666667     0.456350000000     0          
O        O      0.452866666667     0.787366666667     0.154200000000     0          
O        O      0.542966666667     0.822100000000     0.139200000000     0          
O        O      0.496066666667     0.771700000000     0.082050000000     0          
O        O      0.504666666667     0.920833333333     0.253400000000     0          
O        O      0.424666666667     0.880200000000     0.285000000000     0          
O        O      0.504633333333     0.828166666667     0.273200000000     0          
O        O      0.471500000000     0.761000000000     0.425550000000     0          
O        O      0.425833333333     0.831133333333     0.466000000000     0          
O        O      0.611733333333     0.714766666667     0.193750000000     0          
O        O      0.531033333333     0.751500000000     0.228600000000     0          
O        O      0.530066666667     0.729000000000     0.149750000000     0          
O        O      0.532533333333     0.993400000000     0.206350000000     0          
O        O      0.547133333333     0.879300000000     0.404200000000     0          
O        O      0.457033333333     0.844566666667     0.389200000000     0          
O        O      0.503933333333     0.894966666667     0.332050000000     0          
O        O      0.495333333333     0.745833333333     0.003400000000     0          
O        O      0.575333333333     0.786466666667     0.035000000000     0          
O        O      0.495366666667     0.838500000000     0.023200000000     0          
O        O      0.528500000000     0.905666666667     0.175550000000     0          
O        O      0.574166666667     0.835533333333     0.216000000000     0          
O        O      0.445066666667     0.951900000000     0.693750000000     0          
O        O      0.364366666667     0.915166666667     0.728600000000     0          
O        O      0.363400000000     0.937666666667     0.649750000000     0          
O        O      0.365866666667     0.673266666667     0.706350000000     0          
O        O      0.380466666667     0.787366666667     0.904200000000     0          
O        O      0.623700000000     0.822100000000     0.889200000000     0          
O        O      0.337266666667     0.771700000000     0.832050000000     0          
O        O      0.662000000000     0.920833333333     0.503400000000     0          
O        O      0.408666666667     0.880200000000     0.535000000000     0          
O        O      0.662033333333     0.828166666667     0.523200000000     0          
O        O      0.361833333333     0.761000000000     0.675550000000     0          
O        O      0.407500000000     0.831133333333     0.716000000000     0          
O        O      0.554933333333     0.714766666667     0.943750000000     0          
O        O      0.635633333333     0.751500000000     0.978600000000     0          
O        O      0.636600000000     0.729000000000     0.899750000000     0          
O        O      0.634133333333     0.993400000000     0.956350000000     0          
O        O      0.619533333333     0.879300000000     0.654200000000     0          
O        O      0.376300000000     0.844566666667     0.639200000000     0          
O        O      0.662733333333     0.894966666667     0.582050000000     0          
O        O      0.338000000000     0.745833333333     0.753400000000     0          
O        O      0.591333333333     0.786466666667     0.785000000000     0          
O        O      0.337966666667     0.838500000000     0.773200000000     0          
O        O      0.638166666667     0.905666666667     0.925550000000     0          
O        O      0.592500000000     0.835533333333     0.966000000000     0          
O        O      0.388266666667     0.951900000000     0.943750000000     0          
O        O      0.468966666667     0.915166666667     0.978600000000     0          
O        O      0.469933333333     0.937666666667     0.899750000000     0          
O        O      0.467466666667     0.673266666667     0.956350000000     0          
O        O      0.452866666667     0.787366666667     0.654200000000     0          
O        O      0.542966666667     0.822100000000     0.639200000000     0          
O        O      0.496066666667     0.771700000000     0.582050000000     0          
O        O      0.504666666667     0.920833333333     0.753400000000     0          
O        O      0.424666666667     0.880200000000     0.785000000000     0          
O        O      0.504633333333     0.828166666667     0.773200000000     0          
O        O      0.471500000000     0.761000000000     0.925550000000     0          
O        O      0.425833333333     0.831133333333     0.966000000000     0          
O        O      0.611733333333     0.714766666667     0.693750000000     0          
O        O      0.531033333333     0.751500000000     0.728600000000     0          
O        O      0.530066666667     0.729000000000     0.649750000000     0          
O        O      0.532533333333     0.993400000000     0.706350000000     0          
O        O      0.547133333333     0.879300000000     0.904200000000     0          
O        O      0.457033333333     0.844566666667     0.889200000000     0          
O        O      0.503933333333     0.894966666667     0.832050000000     0          
O        O      0.495333333333     0.745833333333     0.503400000000     0          
O        O      0.575333333333     0.786466666667     0.535000000000     0          
O        O      0.495366666667     0.838500000000     0.523200000000     0          
O        O      0.528500000000     0.905666666667     0.675550000000     0          
O        O      0.574166666667     0.835533333333     0.716000000000     0          
O        O      0.778400000000     0.285233333333     0.193750000000     0          
O        O      0.697700000000     0.248500000000     0.228600000000     0          
O        O      0.696733333333     0.271000000000     0.149750000000     0          
O        O      0.699200000000     0.006600000000     0.206350000000     0          
O        O      0.713800000000     0.120700000000     0.404200000000     0          
O        O      0.957033333333     0.155433333333     0.389200000000     0          
O        O      0.670600000000     0.105033333333     0.332050000000     0          
O        O      0.995333333333     0.254166666667     0.003400000000     0          
O        O      0.742000000000     0.213533333333     0.035000000000     0          
O        O      0.995366666667     0.161500000000     0.023200000000     0          
O        O      0.695166666667     0.094333333333     0.175550000000     0          
O        O      0.740833333333     0.164466666667     0.216000000000     0          
O        O      0.888266666667     0.048100000000     0.443750000000     0          
O        O      0.968966666667     0.084833333333     0.478600000000     0          
O        O      0.969933333333     0.062333333333     0.399750000000     0          
O        O      0.967466666667     0.326733333333     0.456350000000     0          
O        O      0.952866666667     0.212633333333     0.154200000000     0          
O        O      0.709633333333     0.177900000000     0.139200000000     0          
O        O      0.996066666667     0.228300000000     0.082050000000     0          
O        O      0.671333333333     0.079166666667     0.253400000000     0          
O        O      0.924666666667     0.119800000000     0.285000000000     0          
O        O      0.671300000000     0.171833333333     0.273200000000     0          
O        O      0.971500000000     0.239000000000     0.425550000000     0          
O        O      0.925833333333     0.168866666667     0.466000000000     0          
O        O      0.721600000000     0.285233333333     0.443750000000     0          
O        O      0.802300000000     0.248500000000     0.478600000000     0          
O        O      0.803266666667     0.271000000000     0.399750000000     0          
O        O      0.800800000000     0.006600000000     0.456350000000     0          
O        O      0.786200000000     0.120700000000     0.154200000000     0          
O        O      0.876300000000     0.155433333333     0.139200000000     0          
O        O      0.829400000000     0.105033333333     0.082050000000     0          
O        O      0.838000000000     0.254166666667     0.253400000000     0          
O        O      0.758000000000     0.213533333333     0.285000000000     0          
O        O      0.837966666667     0.161500000000     0.273200000000     0          
O        O      0.804833333333     0.094333333333     0.425550000000     0          
O        O      0.759166666667     0.164466666667     0.466000000000     0          
O        O      0.945066666667     0.048100000000     0.193750000000     0          
O        O      0.864366666667     0.084833333333     0.228600000000     0          
O        O      0.863400000000     0.062333333333     0.149750000000     0          
O        O      0.865866666667     0.326733333333     0.206350000000     0          
O        O      0.880466666667     0.212633333333     0.404200000000     0          
O        O      0.790366666667     0.177900000000     0.389200000000     0          
O        O      0.837266666667     0.228300000000     0.332050000000     0          
O        O      0.828666666667     0.079166666667     0.003400000000     0          
O        O      0.908666666667     0.119800000000     0.035000000000     0          
O        O      0.828700000000     0.171833333333     0.023200000000     0          
O        O      0.861833333333     0.239000000000     0.175550000000     0          
O        O      0.907500000000     0.168866666667     0.216000000000     0          
O        O      0.778400000000     0.285233333333     0.693750000000     0          
O        O      0.697700000000     0.248500000000     0.728600000000     0          
O        O      0.696733333333     0.271000000000     0.649750000000     0          
O        O      0.699200000000     0.006600000000     0.706350000000     0          
O        O      0.713800000000     0.120700000000     0.904200000000     0          
O        O      0.957033333333     0.155433333333     0.889200000000     0          
O        O      0.670600000000     0.105033333333     0.832050000000     0          
O        O      0.995333333333     0.254166666667     0.503400000000     0          
O        O      0.742000000000     0.213533333333     0.535000000000     0          
O        O      0.995366666667     0.161500000000     0.523200000000     0          
O        O      0.695166666667     0.094333333333     0.675550000000     0          
O        O      0.740833333333     0.164466666667     0.716000000000     0          
O        O      0.888266666667     0.048100000000     0.943750000000     0          
O        O      0.968966666667     0.084833333333     0.978600000000     0          
O        O      0.969933333333     0.062333333333     0.899750000000     0          
O        O      0.967466666667     0.326733333333     0.956350000000     0          
O        O      0.952866666667     0.212633333333     0.654200000000     0          
O        O      0.709633333333     0.177900000000     0.639200000000     0          
O        O      0.996066666667     0.228300000000     0.582050000000     0          
O        O      0.671333333333     0.079166666667     0.753400000000     0          
O        O      0.924666666667     0.119800000000     0.785000000000     0          
O        O      0.671300000000     0.171833333333     0.773200000000     0          
O        O      0.971500000000     0.239000000000     0.925550000000     0          
O        O      0.925833333333     0.168866666667     0.966000000000     0          
O        O      0.721600000000     0.285233333333     0.943750000000     0          
O        O      0.802300000000     0.248500000000     0.978600000000     0          
O        O      0.803266666667     0.271000000000     0.899750000000     0          
O        O      0.800800000000     0.006600000000     0.956350000000     0          
O        O      0.786200000000     0.120700000000     0.654200000000     0          
O        O      0.876300000000     0.155433333333     0.639200000000     0          
O        O      0.829400000000     0.105033333333     0.582050000000     0          
O        O      0.838000000000     0.254166666667     0.753400000000     0          
O        O      0.758000000000     0.213533333333     0.785000000000     0          
O        O      0.837966666667     0.161500000000     0.773200000000     0          
O        O      0.804833333333     0.094333333333     0.925550000000     0          
O        O      0.759166666667     0.164466666667     0.966000000000     0          
O        O      0.945066666667     0.048100000000     0.693750000000     0          
O        O      0.864366666667     0.084833333333     0.728600000000     0          
O        O      0.863400000000     0.062333333333     0.649750000000     0          
O        O      0.865866666667     0.326733333333     0.706350000000     0          
O        O      0.880466666667     0.212633333333     0.904200000000     0          
O        O      0.790366666667     0.177900000000     0.889200000000     0          
O        O      0.837266666667     0.228300000000     0.832050000000     0          
O        O      0.828666666667     0.079166666667     0.503400000000     0          
O        O      0.908666666667     0.119800000000     0.535000000000     0          
O        O      0.828700000000     0.171833333333     0.523200000000     0          
O        O      0.861833333333     0.239000000000     0.675550000000     0          
O        O      0.907500000000     0.168866666667     0.716000000000     0          
O        O      0.778400000000     0.618566666667     0.193750000000     0          
O        O      0.697700000000     0.581833333333     0.228600000000     0          
O        O      0.696733333333     0.604333333333     0.149750000000     0          
O        O      0.699200000000     0.339933333333     0.206350000000     0          
O        O      0.713800000000     0.454033333333     0.404200000000     0          
O        O      0.957033333333     0.488766666667     0.389200000000     0          
O        O      0.670600000000     0.438366666667     0.332050000000     0          
O        O      0.995333333333     0.587500000000     0.003400000000     0          
O        O      0.742000000000     0.546866666667     0.035000000000     0          
O        O      0.995366666667     0.494833333333     0.023200000000     0          
O        O      0.695166666667     0.427666666667     0.175550000000     0          
O        O      0.740833333333     0.497800000000     0.216000000000     0          
O        O      0.888266666667     0.381433333333     0.443750000000     0          
O        O      0.968966666667     0.418166666667     0.478600000000     0          
O        O      0.969933333333     0.395666666667     0.399750000000     0          
O        O      0.967466666667     0.660066666667     0.456350000000     0          
O        O      0.952866666667     0.545966666667     0.154200000000     0          
O        O      0.709633333333     0.511233333333     0.139200000000     0          
O        O      0.996066666667     0.561633333333     0.082050000000     0          
O        O      0.671333333333     0.412500000000     0.253400000000     0          
O        O      0.924666666667     0.453133333333     0.285000000000     0          
O        O      0.671300000000     0.505166666667     0.273200000000     0          
O        O      0.971500000000     0.572333333333     0.425550000000     0          
O        O      0.925833333333     0.502200000000     0.466000000000     0          
O        O      0.721600000000     0.618566666667     0.443750000000     0          
O        O      0.802300000000     0.581833333333     0.478600000000     0          
O        O      0.803266666667     0.604333333333     0.399750000000     0          
O        O      0.800800000000     0.339933333333     0.456350000000     0          
O        O      0.786200000000     0.454033333333     0.154200000000     0          
O        O      0.876300000000     0.488766666667     0.139200000000     0          
O        O      0.829400000000     0.438366666667     0.082050000000     0          
O        O      0.838000000000     0.587500000000     0.253400000000     0          
O        O      0.758000000000     0.546866666667     0.285000000000     0          
O        O      0.837966666667     0.494833333333     0.273200000000     0          
O        O      0.804833333333     0.427666666667     0.425550000000     0          
O        O      0.759166666667     0.497800000000     0.466000000000     0          
O        O      0.945066666667     0.381433333333     0.193750000000     0          
O        O      0.864366666667     0.418166666667     0.228600000000     0          
O        O      0.863400000000     0.395666666667     0.149750000000     0          
O        O      0.865866666667     0.660066666667     0.206350000000     0          
O        O      0.880466666667     0.545966666667     0.404200000000     0          
O        O      0.790366666667     0.511233333333     0.389200000000     0          
O        O      0.837266666667     0.561633333333     0.332050000000     0          
O        O      0.828666666667     0.412500000000     0.003400000000     0          
O        O      0.908666666667     0.453133333333     0.035000000000     0          
O        O      0.828700000000     0.505166666667     0.023200000000     0          
O        O      0.861833333333     0.572333333333     0.175550000000     0          
O        O      0.907500000000     0.502200000000     0.216000000000     0          
O        O      0.778400000000     0.618566666667     0.693750000000     0          
O        O      0.697700000000     0.581833333333     0.728600000000     0          
O        O      0.696733333333     0.604333333333     0.649750000000     0          
O        O      0.699200000000     0.339933333333     0.706350000000     0          
O        O      0.713800000000     0.454033333333     0.904200000000     0          
O        O      0.957033333333     0.488766666667     0.889200000000     0          
O        O      0.670600000000     0.438366666667     0.832050000000     0          
O        O      0.995333333333     0.587500000000     0.503400000000     0          
O        O      0.742000000000     0.546866666667     0.535000000000     0          
O        O      0.995366666667     0.494833333333     0.523200000000     0          
O        O      0.695166666667     0.427666666667     0.675550000000     0          
O        O      0.740833333333     0.497800000000     0.716000000000     0          
O        O      0.888266666667     0.381433333333     0.943750000000     0          
O        O      0.968966666667     0.418166666667     0.978600000000     0          
O        O      0.969933333333     0.395666666667     0.899750000000     0          
O        O      0.967466666667     0.660066666667     0.956350000000     0          
O        O      0.952866666667     0.545966666667     0.654200000000     0          
O        O      0.709633333333     0.511233333333     0.639200000000     0          
O        O      0.996066666667     0.561633333333     0.582050000000     0          
O        O      0.671333333333     0.412500000000     0.753400000000     0          
O        O      0.924666666667     0.453133333333     0.785000000000     0          
O        O      0.671300000000     0.505166666667     0.773200000000     0          
O        O      0.971500000000     0.572333333333     0.925550000000     0          
O        O      0.925833333333     0.502200000000     0.966000000000     0          
O        O      0.721600000000     0.618566666667     0.943750000000     0          
O        O      0.802300000000     0.581833333333     0.978600000000     0          
O        O      0.803266666667     0.604333333333     0.899750000000     0          
O        O      0.800800000000     0.339933333333     0.956350000000     0          
O        O      0.786200000000     0.454033333333     0.654200000000     0          
O        O      0.876300000000     0.488766666667     0.639200000000     0          
O        O      0.829400000000     0.438366666667     0.582050000000     0          
O        O      0.838000000000     0.587500000000     0.753400000000     0          
O        O      0.758000000000     0.546866666667     0.785000000000     0          
O        O      0.837966666667     0.494833333333     0.773200000000     0          
O        O      0.804833333333     0.427666666667     0.925550000000     0          
O        O      0.759166666667     0.497800000000     0.966000000000     0          
O        O      0.945066666667     0.381433333333     0.693750000000     0          
O        O      0.864366666667     0.418166666667     0.728600000000     0          
O        O      0.863400000000     0.395666666667     0.649750000000     0          
O        O      0.865866666667     0.660066666667     0.706350000000     0          
O        O      0.880466666667     0.545966666667     0.904200000000     0          
O        O      0.790366666667     0.511233333333     0.889200000000     0          
O        O      0.837266666667     0.561633333333     0.832050000000     0          
O        O      0.828666666667     0.412500000000     0.503400000000     0          
O        O      0.908666666667     0.453133333333     0.535000000000     0          
O        O      0.828700000000     0.505166666667     0.523200000000     0          
O        O      0.861833333333     0.572333333333     0.675550000000     0          
O        O      0.907500000000     0.502200000000     0.716000000000     0          
O        O      0.778400000000     0.951900000000     0.193750000000     0          
O        O      0.697700000000     0.915166666667     0.228600000000     0          
O        O      0.696733333333     0.937666666667     0.149750000000     0          
O        O      0.699200000000     0.673266666667     0.206350000000     0          
O        O      0.713800000000     0.787366666667     0.404200000000     0          
O        O      0.957033333333     0.822100000000     0.389200000000     0          
O        O      0.670600000000     0.771700000000     0.332050000000     0          
O        O      0.995333333333     0.920833333333     0.003400000000     0          
O        O      0.742000000000     0.880200000000     0.035000000000     0          
O        O      0.995366666667     0.828166666667     0.023200000000     0          
O        O      0.695166666667     0.761000000000     0.175550000000     0          
O        O      0.740833333333     0.831133333333     0.216000000000     0          
O        O      0.888266666667     0.714766666667     0.443750000000     0          
O        O      0.968966666667     0.751500000000     0.478600000000     0          
O        O      0.969933333333     0.729000000000     0.399750000000     0          
O        O      0.967466666667     0.993400000000     0.456350000000     0          
O        O      0.952866666667     0.879300000000     0.154200000000     0          
O        O      0.709633333333     0.844566666667     0.139200000000     0          
O        O      0.996066666667     0.894966666667     0.082050000000     0          
O        O      0.671333333333     0.745833333333     0.253400000000     0          
O        O      0.924666666667     0.786466666667     0.285000000000     0          
O        O      0.671300000000     0.838500000000     0.273200000000     0          
O        O      0.971500000000     0.905666666667     0.425550000000     0          
O        O      0.925833333333     0.835533333333     0.466000000000     0          
O        O      0.721600000000     0.951900000000     0.443750000000     0          
O        O      0.802300000000     0.915166666667     0.478600000000     0          
O        O      0.803266666667     0.937666666667     0.399750000000     0          
O        O      0.800800000000     0.673266666667     0.456350000000     0          
O        O      0.786200000000     0.787366666667     0.154200000000     0          
O        O      0.876300000000     0.822100000000     0.139200000000     0          
O        O      0.829400000000     0.771700000000     0.082050000000     0          
O        O      0.838000000000     0.920833333333     0.253400000000     0          
O        O      0.758000000000     0.880200000000     0.285000000000     0          
O        O      0.837966666667     0.828166666667     0.273200000000     0          
O        O      0.804833333333     0.761000000000     0.425550000000     0          
O        O      0.759166666667     0.831133333333     0.466000000000     0          
O        O      0.945066666667     0.714766666667     0.193750000000     0          
O        O      0.864366666667     0.751500000000     0.228600000000     0          
O        O      0.863400000000     0.729000000000     0.149750000000     0          
O        O      0.865866666667     0.993400000000     0.206350000000     0          
O        O      0.880466666667     0.879300000000     0.404200000000     0          
O        O      0.790366666667     0.844566666667     0.389200000000     0          
O        O      0.837266666667     0.894966666667     0.332050000000     0          
O        O      0.828666666667     0.745833333333     0.003400000000     0          
O        O      0.908666666667     0.786466666667     0.035000000000     0          
O        O      0.828700000000     0.838500000000     0.023200000000     0          
O        O      0.861833333333     0.905666666667     0.175550000000     0          
O        O      0.907500000000     0.835533333333     0.216000000000     0          
O        O      0.778400000000     0.951900000000     0.693750000000     0          
O        O      0.697700000000     0.915166666667     0.728600000000     0          
O        O      0.696733333333     0.937666666667     0.649750000000     0          
O        O      0.699200000000     0.673266666667     0.706350000000     0          
O        O      0.713800000000     0.787366666667     0.904200000000     0          
O        O      0.957033333333     0.822100000000     0.889200000000     0          
O        O      0.670600000000     0.771700000000     0.832050000000     0          
O        O      0.995333333333     0.920833333333     0.503400000000     0          
O        O      0.742000000000     0.880200000000     0.535000000000     0          
O        O      0.995366666667     0.828166666667     0.523200000000     0          
O        O      0.695166666667     0.761000000000     0.675550000000     0          
O        O      0.740833333333     0.831133333333     0.716000000000     0          
O        O      0.888266666667     0.714766666667     0.943750000000     0          
O        O      0.968966666667     0.751500000000     0.978600000000     0          
O        O      0.969933333333     0.729000000000     0.899750000000     0          
O        O      0.967466666667     0.993400000000     0.956350000000     0          
O        O      0.952866666667     0.879300000000     0.654200000000     0          
O        O      0.709633333333     0.844566666667     0.639200000000     0          
O        O      0.996066666667     0.894966666667     0.582050000000     0          
O        O      0.671333333333     0.745833333333     0.753400000000     0          
O        O      0.924666666667     0.786466666667     0.785000000000     0          
O        O      0.671300000000     0.838500000000     0.773200000000     0          
O        O      0.971500000000     0.905666666667     0.925550000000     0          
O        O      0.925833333333     0.835533333333     0.966000000000     0          
O        O      0.721600000000     0.951900000000     0.943750000000     0          
O        O      0.802300000000     0.915166666667     0.978600000000     0          
O        O      0.803266666667     0.937666666667     0.899750000000     0          
O        O      0.800800000000     0.673266666667     0.956350000000     0          
O        O      0.786200000000     0.787366666667     0.654200000000     0          
O        O      0.876300000000     0.822100000000     0.639200000000     0          
O        O      0.829400000000     0.771700000000     0.582050000000     0          
O        O      0.838000000000     0.920833333333     0.753400000000     0          
O        O      0.758000000000     0.880200000000     0.785000000000     0          
O        O      0.837966666667     0.828166666667     0.773200000000     0          
O        O      0.804833333333     0.761000000000     0.925550000000     0          
O        O      0.759166666667     0.831133333333     0.966000000000     0          
O        O      0.945066666667     0.714766666667     0.693750000000     0          
O        O      0.864366666667     0.751500000000     0.728600000000     0          
O        O      0.863400000000     0.729000000000     0.649750000000     0          
O        O      0.865866666667     0.993400000000     0.706350000000     0          
O        O      0.880466666667     0.879300000000     0.904200000000     0          
O        O      0.790366666667     0.844566666667     0.889200000000     0          
O        O      0.837266666667     0.894966666667     0.832050000000     0          
O        O      0.828666666667     0.745833333333     0.503400000000     0          
O        O      0.908666666667     0.786466666667     0.535000000000     0          
O        O      0.828700000000     0.838500000000     0.523200000000     0          
O        O      0.861833333333     0.905666666667     0.675550000000     0          
O        O      0.907500000000     0.835533333333     0.716000000000     0          


