data_zeolite

_audit_creation_method RASPA-1.0
_audit_creation_date 2021-6-6
_audit_author_name ''

_cell_length_a    34.838
_cell_length_b    34.838
_cell_length_c    34.838
_cell_angle_alpha 90
_cell_angle_beta  90
_cell_angle_gamma 90
_cell_volume      42282.4

_symmetry_cell_setting          cubic
_symmetry_space_group_name_Hall 'P 1'
_symmetry_space_group_name_H-M  'P 1'
_symmetry_Int_Tables_number     1

_symmetry_equiv_pos_as_xyz 'x,y,z'

loop_
_atom_site_label
_atom_site_type_symbol
_atom_site_fract_x
_atom_site_fract_y
_atom_site_fract_z
_atom_site_charge
O        O      0.306400000000     0.238600000000     0.142700000000     0          
O        O      0.302400000000     0.214600000000     0.071300000000     0          
O        O      0.357400000000     0.261900000000     0.092000000000     0          
O        O      0.286300000000     0.286300000000     0.087800000000     0          
O        O      0.500000000000     0.120000000000     0.051200000000     0          
O        O      0.446400000000     0.070500000000     0.070500000000     0          
O        O      0.449700000000     0.096800000000     0.000000000000     0          
O        O      0.428000000000     0.142200000000     0.056200000000     0          
O        O      0.357000000000     0.167000000000     0.049900000000     0          
O        O      0.409200000000     0.188900000000     0.000000000000     0          
O        O      0.412000000000     0.214300000000     0.071100000000     0          
O        O      0.285700000000     0.142800000000     0.055800000000     0          
O        O      0.305200000000     0.189800000000     0.000000000000     0          
O        O      0.214200000000     0.118900000000     0.050900000000     0          
O        O      0.265100000000     0.096300000000     0.000000000000     0          
O        O      0.268900000000     0.070800000000     0.070800000000     0          
O        O      0.163200000000     0.096600000000     0.000000000000     0          
O        O      0.159500000000     0.070800000000     0.070800000000     0          
O        O      0.142900000000     0.142900000000     0.056000000000     0          
O        O      0.302200000000     0.214000000000     0.214000000000     0          
T        Si     0.313100000000     0.250300000000     0.098500000000     0          
T        Si     0.456100000000     0.107500000000     0.044500000000     0          
T        Si     0.401500000000     0.178100000000     0.044300000000     0          
T        Si     0.312600000000     0.178500000000     0.044200000000     0          
T        Si     0.258500000000     0.107200000000     0.044400000000     0          
T        Si     0.170000000000     0.107300000000     0.044400000000     0          
T        Si     0.312900000000     0.250000000000     0.187100000000     0          
T        Si     0.401600000000     0.250000000000     0.098400000000     0          
O        O      0.761400000000     0.306400000000     0.142700000000     0          
O        O      0.785400000000     0.302400000000     0.071300000000     0          
O        O      0.738100000000     0.357400000000     0.092000000000     0          
O        O      0.713700000000     0.286300000000     0.087800000000     0          
O        O      0.880000000000     0.500000000000     0.051200000000     0          
O        O      0.929500000000     0.446400000000     0.070500000000     0          
O        O      0.903200000000     0.449700000000     0.000000000000     0          
O        O      0.857800000000     0.428000000000     0.056200000000     0          
O        O      0.833000000000     0.357000000000     0.049900000000     0          
O        O      0.811100000000     0.409200000000     0.000000000000     0          
O        O      0.785700000000     0.412000000000     0.071100000000     0          
O        O      0.857200000000     0.285700000000     0.055800000000     0          
O        O      0.810200000000     0.305200000000     0.000000000000     0          
O        O      0.881100000000     0.214200000000     0.050900000000     0          
O        O      0.903700000000     0.265100000000     0.000000000000     0          
O        O      0.929200000000     0.268900000000     0.070800000000     0          
O        O      0.903400000000     0.163200000000     0.000000000000     0          
O        O      0.929200000000     0.159500000000     0.070800000000     0          
O        O      0.857100000000     0.142900000000     0.056000000000     0          
O        O      0.786000000000     0.302200000000     0.214000000000     0          
T        Si     0.749700000000     0.313100000000     0.098500000000     0          
T        Si     0.892500000000     0.456100000000     0.044500000000     0          
T        Si     0.821900000000     0.401500000000     0.044300000000     0          
T        Si     0.821500000000     0.312600000000     0.044200000000     0          
T        Si     0.892800000000     0.258500000000     0.044400000000     0          
T        Si     0.892700000000     0.170000000000     0.044400000000     0          
T        Si     0.750000000000     0.312900000000     0.187100000000     0          
T        Si     0.750000000000     0.401600000000     0.098400000000     0          
O        O      0.693600000000     0.761400000000     0.142700000000     0          
O        O      0.697600000000     0.785400000000     0.071300000000     0          
O        O      0.642600000000     0.738100000000     0.092000000000     0          
O        O      0.713700000000     0.713700000000     0.087800000000     0          
O        O      0.500000000000     0.880000000000     0.051200000000     0          
O        O      0.553600000000     0.929500000000     0.070500000000     0          
O        O      0.550300000000     0.903200000000     0.000000000000     0          
O        O      0.572000000000     0.857800000000     0.056200000000     0          
O        O      0.643000000000     0.833000000000     0.049900000000     0          
O        O      0.590800000000     0.811100000000     0.000000000000     0          
O        O      0.588000000000     0.785700000000     0.071100000000     0          
O        O      0.714300000000     0.857200000000     0.055800000000     0          
O        O      0.694800000000     0.810200000000     0.000000000000     0          
O        O      0.785800000000     0.881100000000     0.050900000000     0          
O        O      0.734900000000     0.903700000000     0.000000000000     0          
O        O      0.731100000000     0.929200000000     0.070800000000     0          
O        O      0.836800000000     0.903400000000     0.000000000000     0          
O        O      0.840500000000     0.929200000000     0.070800000000     0          
O        O      0.857100000000     0.857100000000     0.056000000000     0          
O        O      0.697800000000     0.786000000000     0.214000000000     0          
T        Si     0.686900000000     0.749700000000     0.098500000000     0          
T        Si     0.543900000000     0.892500000000     0.044500000000     0          
T        Si     0.598500000000     0.821900000000     0.044300000000     0          
T        Si     0.687400000000     0.821500000000     0.044200000000     0          
T        Si     0.741500000000     0.892800000000     0.044400000000     0          
T        Si     0.830000000000     0.892700000000     0.044400000000     0          
T        Si     0.687100000000     0.750000000000     0.187100000000     0          
T        Si     0.598400000000     0.750000000000     0.098400000000     0          
O        O      0.238600000000     0.693600000000     0.142700000000     0          
O        O      0.214600000000     0.697600000000     0.071300000000     0          
O        O      0.261900000000     0.642600000000     0.092000000000     0          
O        O      0.286300000000     0.713700000000     0.087800000000     0          
O        O      0.120000000000     0.500000000000     0.051200000000     0          
O        O      0.070500000000     0.553600000000     0.070500000000     0          
O        O      0.096800000000     0.550300000000     0.000000000000     0          
O        O      0.142200000000     0.572000000000     0.056200000000     0          
O        O      0.167000000000     0.643000000000     0.049900000000     0          
O        O      0.188900000000     0.590800000000     0.000000000000     0          
O        O      0.214300000000     0.588000000000     0.071100000000     0          
O        O      0.142800000000     0.714300000000     0.055800000000     0          
O        O      0.189800000000     0.694800000000     0.000000000000     0          
O        O      0.118900000000     0.785800000000     0.050900000000     0          
O        O      0.096300000000     0.734900000000     0.000000000000     0          
O        O      0.070800000000     0.731100000000     0.070800000000     0          
O        O      0.096600000000     0.836800000000     0.000000000000     0          
O        O      0.070800000000     0.840500000000     0.070800000000     0          
O        O      0.142900000000     0.857100000000     0.056000000000     0          
O        O      0.214000000000     0.697800000000     0.214000000000     0          
T        Si     0.250300000000     0.686900000000     0.098500000000     0          
T        Si     0.107500000000     0.543900000000     0.044500000000     0          
T        Si     0.178100000000     0.598500000000     0.044300000000     0          
T        Si     0.178500000000     0.687400000000     0.044200000000     0          
T        Si     0.107200000000     0.741500000000     0.044400000000     0          
T        Si     0.107300000000     0.830000000000     0.044400000000     0          
T        Si     0.250000000000     0.687100000000     0.187100000000     0          
T        Si     0.250000000000     0.598400000000     0.098400000000     0          
O        O      0.306400000000     0.761400000000     0.857300000000     0          
O        O      0.302400000000     0.785400000000     0.928700000000     0          
O        O      0.357400000000     0.738100000000     0.908000000000     0          
O        O      0.286300000000     0.713700000000     0.912200000000     0          
O        O      0.500000000000     0.880000000000     0.948800000000     0          
O        O      0.446400000000     0.929500000000     0.929500000000     0          
O        O      0.449700000000     0.903200000000     0.000000000000     0          
O        O      0.428000000000     0.857800000000     0.943800000000     0          
O        O      0.357000000000     0.833000000000     0.950100000000     0          
O        O      0.409200000000     0.811100000000     0.000000000000     0          
O        O      0.412000000000     0.785700000000     0.928900000000     0          
O        O      0.285700000000     0.857200000000     0.944200000000     0          
O        O      0.305200000000     0.810200000000     0.000000000000     0          
O        O      0.214200000000     0.881100000000     0.949100000000     0          
O        O      0.265100000000     0.903700000000     0.000000000000     0          
O        O      0.268900000000     0.929200000000     0.929200000000     0          
O        O      0.163200000000     0.903400000000     0.000000000000     0          
O        O      0.159500000000     0.929200000000     0.929200000000     0          
O        O      0.142900000000     0.857100000000     0.944000000000     0          
O        O      0.302200000000     0.786000000000     0.786000000000     0          
T        Si     0.313100000000     0.749700000000     0.901500000000     0          
T        Si     0.456100000000     0.892500000000     0.955500000000     0          
T        Si     0.401500000000     0.821900000000     0.955700000000     0          
T        Si     0.312600000000     0.821500000000     0.955800000000     0          
T        Si     0.258500000000     0.892800000000     0.955600000000     0          
T        Si     0.170000000000     0.892700000000     0.955600000000     0          
T        Si     0.312900000000     0.750000000000     0.812900000000     0          
T        Si     0.401600000000     0.750000000000     0.901600000000     0          
O        O      0.238600000000     0.306400000000     0.857300000000     0          
O        O      0.214600000000     0.302400000000     0.928700000000     0          
O        O      0.261900000000     0.357400000000     0.908000000000     0          
O        O      0.286300000000     0.286300000000     0.912200000000     0          
O        O      0.120000000000     0.500000000000     0.948800000000     0          
O        O      0.070500000000     0.446400000000     0.929500000000     0          
O        O      0.096800000000     0.449700000000     0.000000000000     0          
O        O      0.142200000000     0.428000000000     0.943800000000     0          
O        O      0.167000000000     0.357000000000     0.950100000000     0          
O        O      0.188900000000     0.409200000000     0.000000000000     0          
O        O      0.214300000000     0.412000000000     0.928900000000     0          
O        O      0.142800000000     0.285700000000     0.944200000000     0          
O        O      0.189800000000     0.305200000000     0.000000000000     0          
O        O      0.118900000000     0.214200000000     0.949100000000     0          
O        O      0.096300000000     0.265100000000     0.000000000000     0          
O        O      0.070800000000     0.268900000000     0.929200000000     0          
O        O      0.096600000000     0.163200000000     0.000000000000     0          
O        O      0.070800000000     0.159500000000     0.929200000000     0          
O        O      0.142900000000     0.142900000000     0.944000000000     0          
O        O      0.214000000000     0.302200000000     0.786000000000     0          
T        Si     0.250300000000     0.313100000000     0.901500000000     0          
T        Si     0.107500000000     0.456100000000     0.955500000000     0          
T        Si     0.178100000000     0.401500000000     0.955700000000     0          
T        Si     0.178500000000     0.312600000000     0.955800000000     0          
T        Si     0.107200000000     0.258500000000     0.955600000000     0          
T        Si     0.107300000000     0.170000000000     0.955600000000     0          
T        Si     0.250000000000     0.312900000000     0.812900000000     0          
T        Si     0.250000000000     0.401600000000     0.901600000000     0          
O        O      0.693600000000     0.238600000000     0.857300000000     0          
O        O      0.697600000000     0.214600000000     0.928700000000     0          
O        O      0.642600000000     0.261900000000     0.908000000000     0          
O        O      0.713700000000     0.286300000000     0.912200000000     0          
O        O      0.500000000000     0.120000000000     0.948800000000     0          
O        O      0.553600000000     0.070500000000     0.929500000000     0          
O        O      0.550300000000     0.096800000000     0.000000000000     0          
O        O      0.572000000000     0.142200000000     0.943800000000     0          
O        O      0.643000000000     0.167000000000     0.950100000000     0          
O        O      0.590800000000     0.188900000000     0.000000000000     0          
O        O      0.588000000000     0.214300000000     0.928900000000     0          
O        O      0.714300000000     0.142800000000     0.944200000000     0          
O        O      0.694800000000     0.189800000000     0.000000000000     0          
O        O      0.785800000000     0.118900000000     0.949100000000     0          
O        O      0.734900000000     0.096300000000     0.000000000000     0          
O        O      0.731100000000     0.070800000000     0.929200000000     0          
O        O      0.836800000000     0.096600000000     0.000000000000     0          
O        O      0.840500000000     0.070800000000     0.929200000000     0          
O        O      0.857100000000     0.142900000000     0.944000000000     0          
O        O      0.697800000000     0.214000000000     0.786000000000     0          
T        Si     0.686900000000     0.250300000000     0.901500000000     0          
T        Si     0.543900000000     0.107500000000     0.955500000000     0          
T        Si     0.598500000000     0.178100000000     0.955700000000     0          
T        Si     0.687400000000     0.178500000000     0.955800000000     0          
T        Si     0.741500000000     0.107200000000     0.955600000000     0          
T        Si     0.830000000000     0.107300000000     0.955600000000     0          
T        Si     0.687100000000     0.250000000000     0.812900000000     0          
T        Si     0.598400000000     0.250000000000     0.901600000000     0          
O        O      0.761400000000     0.693600000000     0.857300000000     0          
O        O      0.785400000000     0.697600000000     0.928700000000     0          
O        O      0.738100000000     0.642600000000     0.908000000000     0          
O        O      0.713700000000     0.713700000000     0.912200000000     0          
O        O      0.880000000000     0.500000000000     0.948800000000     0          
O        O      0.929500000000     0.553600000000     0.929500000000     0          
O        O      0.903200000000     0.550300000000     0.000000000000     0          
O        O      0.857800000000     0.572000000000     0.943800000000     0          
O        O      0.833000000000     0.643000000000     0.950100000000     0          
O        O      0.811100000000     0.590800000000     0.000000000000     0          
O        O      0.785700000000     0.588000000000     0.928900000000     0          
O        O      0.857200000000     0.714300000000     0.944200000000     0          
O        O      0.810200000000     0.694800000000     0.000000000000     0          
O        O      0.881100000000     0.785800000000     0.949100000000     0          
O        O      0.903700000000     0.734900000000     0.000000000000     0          
O        O      0.929200000000     0.731100000000     0.929200000000     0          
O        O      0.903400000000     0.836800000000     0.000000000000     0          
O        O      0.929200000000     0.840500000000     0.929200000000     0          
O        O      0.857100000000     0.857100000000     0.944000000000     0          
O        O      0.786000000000     0.697800000000     0.786000000000     0          
T        Si     0.749700000000     0.686900000000     0.901500000000     0          
T        Si     0.892500000000     0.543900000000     0.955500000000     0          
T        Si     0.821900000000     0.598500000000     0.955700000000     0          
T        Si     0.821500000000     0.687400000000     0.955800000000     0          
T        Si     0.892800000000     0.741500000000     0.955600000000     0          
T        Si     0.892700000000     0.830000000000     0.955600000000     0          
T        Si     0.750000000000     0.687100000000     0.812900000000     0          
T        Si     0.750000000000     0.598400000000     0.901600000000     0          
O        O      0.142700000000     0.306400000000     0.238600000000     0          
O        O      0.071300000000     0.302400000000     0.214600000000     0          
O        O      0.092000000000     0.357400000000     0.261900000000     0          
O        O      0.087800000000     0.286300000000     0.286300000000     0          
O        O      0.051200000000     0.500000000000     0.120000000000     0          
O        O      0.070500000000     0.446400000000     0.070500000000     0          
O        O      0.000000000000     0.449700000000     0.096800000000     0          
O        O      0.056200000000     0.428000000000     0.142200000000     0          
O        O      0.049900000000     0.357000000000     0.167000000000     0          
O        O      0.000000000000     0.409200000000     0.188900000000     0          
O        O      0.071100000000     0.412000000000     0.214300000000     0          
O        O      0.055800000000     0.285700000000     0.142800000000     0          
O        O      0.000000000000     0.305200000000     0.189800000000     0          
O        O      0.050900000000     0.214200000000     0.118900000000     0          
O        O      0.000000000000     0.265100000000     0.096300000000     0          
O        O      0.070800000000     0.268900000000     0.070800000000     0          
O        O      0.000000000000     0.163200000000     0.096600000000     0          
O        O      0.070800000000     0.159500000000     0.070800000000     0          
O        O      0.056000000000     0.142900000000     0.142900000000     0          
O        O      0.214000000000     0.302200000000     0.214000000000     0          
T        Si     0.098500000000     0.313100000000     0.250300000000     0          
T        Si     0.044500000000     0.456100000000     0.107500000000     0          
T        Si     0.044300000000     0.401500000000     0.178100000000     0          
T        Si     0.044200000000     0.312600000000     0.178500000000     0          
T        Si     0.044400000000     0.258500000000     0.107200000000     0          
T        Si     0.044400000000     0.170000000000     0.107300000000     0          
T        Si     0.187100000000     0.312900000000     0.250000000000     0          
T        Si     0.098400000000     0.401600000000     0.250000000000     0          
O        O      0.693600000000     0.142700000000     0.238600000000     0          
O        O      0.697600000000     0.071300000000     0.214600000000     0          
O        O      0.642600000000     0.092000000000     0.261900000000     0          
O        O      0.713700000000     0.087800000000     0.286300000000     0          
O        O      0.500000000000     0.051200000000     0.120000000000     0          
O        O      0.553600000000     0.070500000000     0.070500000000     0          
O        O      0.550300000000     0.000000000000     0.096800000000     0          
O        O      0.572000000000     0.056200000000     0.142200000000     0          
O        O      0.643000000000     0.049900000000     0.167000000000     0          
O        O      0.590800000000     0.000000000000     0.188900000000     0          
O        O      0.588000000000     0.071100000000     0.214300000000     0          
O        O      0.714300000000     0.055800000000     0.142800000000     0          
O        O      0.694800000000     0.000000000000     0.189800000000     0          
O        O      0.785800000000     0.050900000000     0.118900000000     0          
O        O      0.734900000000     0.000000000000     0.096300000000     0          
O        O      0.731100000000     0.070800000000     0.070800000000     0          
O        O      0.836800000000     0.000000000000     0.096600000000     0          
O        O      0.840500000000     0.070800000000     0.070800000000     0          
O        O      0.857100000000     0.056000000000     0.142900000000     0          
O        O      0.697800000000     0.214000000000     0.214000000000     0          
T        Si     0.686900000000     0.098500000000     0.250300000000     0          
T        Si     0.543900000000     0.044500000000     0.107500000000     0          
T        Si     0.598500000000     0.044300000000     0.178100000000     0          
T        Si     0.687400000000     0.044200000000     0.178500000000     0          
T        Si     0.741500000000     0.044400000000     0.107200000000     0          
T        Si     0.830000000000     0.044400000000     0.107300000000     0          
T        Si     0.687100000000     0.187100000000     0.250000000000     0          
T        Si     0.598400000000     0.098400000000     0.250000000000     0          
O        O      0.857300000000     0.693600000000     0.238600000000     0          
O        O      0.928700000000     0.697600000000     0.214600000000     0          
O        O      0.908000000000     0.642600000000     0.261900000000     0          
O        O      0.912200000000     0.713700000000     0.286300000000     0          
O        O      0.948800000000     0.500000000000     0.120000000000     0          
O        O      0.929500000000     0.553600000000     0.070500000000     0          
O        O      0.000000000000     0.550300000000     0.096800000000     0          
O        O      0.943800000000     0.572000000000     0.142200000000     0          
O        O      0.950100000000     0.643000000000     0.167000000000     0          
O        O      0.000000000000     0.590800000000     0.188900000000     0          
O        O      0.928900000000     0.588000000000     0.214300000000     0          
O        O      0.944200000000     0.714300000000     0.142800000000     0          
O        O      0.000000000000     0.694800000000     0.189800000000     0          
O        O      0.949100000000     0.785800000000     0.118900000000     0          
O        O      0.000000000000     0.734900000000     0.096300000000     0          
O        O      0.929200000000     0.731100000000     0.070800000000     0          
O        O      0.000000000000     0.836800000000     0.096600000000     0          
O        O      0.929200000000     0.840500000000     0.070800000000     0          
O        O      0.944000000000     0.857100000000     0.142900000000     0          
O        O      0.786000000000     0.697800000000     0.214000000000     0          
T        Si     0.901500000000     0.686900000000     0.250300000000     0          
T        Si     0.955500000000     0.543900000000     0.107500000000     0          
T        Si     0.955700000000     0.598500000000     0.178100000000     0          
T        Si     0.955800000000     0.687400000000     0.178500000000     0          
T        Si     0.955600000000     0.741500000000     0.107200000000     0          
T        Si     0.955600000000     0.830000000000     0.107300000000     0          
T        Si     0.812900000000     0.687100000000     0.250000000000     0          
T        Si     0.901600000000     0.598400000000     0.250000000000     0          
O        O      0.306400000000     0.857300000000     0.238600000000     0          
O        O      0.302400000000     0.928700000000     0.214600000000     0          
O        O      0.357400000000     0.908000000000     0.261900000000     0          
O        O      0.286300000000     0.912200000000     0.286300000000     0          
O        O      0.500000000000     0.948800000000     0.120000000000     0          
O        O      0.446400000000     0.929500000000     0.070500000000     0          
O        O      0.449700000000     0.000000000000     0.096800000000     0          
O        O      0.428000000000     0.943800000000     0.142200000000     0          
O        O      0.357000000000     0.950100000000     0.167000000000     0          
O        O      0.409200000000     0.000000000000     0.188900000000     0          
O        O      0.412000000000     0.928900000000     0.214300000000     0          
O        O      0.285700000000     0.944200000000     0.142800000000     0          
O        O      0.305200000000     0.000000000000     0.189800000000     0          
O        O      0.214200000000     0.949100000000     0.118900000000     0          
O        O      0.265100000000     0.000000000000     0.096300000000     0          
O        O      0.268900000000     0.929200000000     0.070800000000     0          
O        O      0.163200000000     0.000000000000     0.096600000000     0          
O        O      0.159500000000     0.929200000000     0.070800000000     0          
O        O      0.142900000000     0.944000000000     0.142900000000     0          
O        O      0.302200000000     0.786000000000     0.214000000000     0          
T        Si     0.313100000000     0.901500000000     0.250300000000     0          
T        Si     0.456100000000     0.955500000000     0.107500000000     0          
T        Si     0.401500000000     0.955700000000     0.178100000000     0          
T        Si     0.312600000000     0.955800000000     0.178500000000     0          
T        Si     0.258500000000     0.955600000000     0.107200000000     0          
T        Si     0.170000000000     0.955600000000     0.107300000000     0          
T        Si     0.312900000000     0.812900000000     0.250000000000     0          
T        Si     0.401600000000     0.901600000000     0.250000000000     0          
O        O      0.142700000000     0.693600000000     0.761400000000     0          
O        O      0.071300000000     0.697600000000     0.785400000000     0          
O        O      0.092000000000     0.642600000000     0.738100000000     0          
O        O      0.087800000000     0.713700000000     0.713700000000     0          
O        O      0.051200000000     0.500000000000     0.880000000000     0          
O        O      0.070500000000     0.553600000000     0.929500000000     0          
O        O      0.000000000000     0.550300000000     0.903200000000     0          
O        O      0.056200000000     0.572000000000     0.857800000000     0          
O        O      0.049900000000     0.643000000000     0.833000000000     0          
O        O      0.000000000000     0.590800000000     0.811100000000     0          
O        O      0.071100000000     0.588000000000     0.785700000000     0          
O        O      0.055800000000     0.714300000000     0.857200000000     0          
O        O      0.000000000000     0.694800000000     0.810200000000     0          
O        O      0.050900000000     0.785800000000     0.881100000000     0          
O        O      0.000000000000     0.734900000000     0.903700000000     0          
O        O      0.070800000000     0.731100000000     0.929200000000     0          
O        O      0.000000000000     0.836800000000     0.903400000000     0          
O        O      0.070800000000     0.840500000000     0.929200000000     0          
O        O      0.056000000000     0.857100000000     0.857100000000     0          
O        O      0.214000000000     0.697800000000     0.786000000000     0          
T        Si     0.098500000000     0.686900000000     0.749700000000     0          
T        Si     0.044500000000     0.543900000000     0.892500000000     0          
T        Si     0.044300000000     0.598500000000     0.821900000000     0          
T        Si     0.044200000000     0.687400000000     0.821500000000     0          
T        Si     0.044400000000     0.741500000000     0.892800000000     0          
T        Si     0.044400000000     0.830000000000     0.892700000000     0          
T        Si     0.187100000000     0.687100000000     0.750000000000     0          
T        Si     0.098400000000     0.598400000000     0.750000000000     0          
O        O      0.306400000000     0.142700000000     0.761400000000     0          
O        O      0.302400000000     0.071300000000     0.785400000000     0          
O        O      0.357400000000     0.092000000000     0.738100000000     0          
O        O      0.286300000000     0.087800000000     0.713700000000     0          
O        O      0.500000000000     0.051200000000     0.880000000000     0          
O        O      0.446400000000     0.070500000000     0.929500000000     0          
O        O      0.449700000000     0.000000000000     0.903200000000     0          
O        O      0.428000000000     0.056200000000     0.857800000000     0          
O        O      0.357000000000     0.049900000000     0.833000000000     0          
O        O      0.409200000000     0.000000000000     0.811100000000     0          
O        O      0.412000000000     0.071100000000     0.785700000000     0          
O        O      0.285700000000     0.055800000000     0.857200000000     0          
O        O      0.305200000000     0.000000000000     0.810200000000     0          
O        O      0.214200000000     0.050900000000     0.881100000000     0          
O        O      0.265100000000     0.000000000000     0.903700000000     0          
O        O      0.268900000000     0.070800000000     0.929200000000     0          
O        O      0.163200000000     0.000000000000     0.903400000000     0          
O        O      0.159500000000     0.070800000000     0.929200000000     0          
O        O      0.142900000000     0.056000000000     0.857100000000     0          
O        O      0.302200000000     0.214000000000     0.786000000000     0          
T        Si     0.313100000000     0.098500000000     0.749700000000     0          
T        Si     0.456100000000     0.044500000000     0.892500000000     0          
T        Si     0.401500000000     0.044300000000     0.821900000000     0          
T        Si     0.312600000000     0.044200000000     0.821500000000     0          
T        Si     0.258500000000     0.044400000000     0.892800000000     0          
T        Si     0.170000000000     0.044400000000     0.892700000000     0          
T        Si     0.312900000000     0.187100000000     0.750000000000     0          
T        Si     0.401600000000     0.098400000000     0.750000000000     0          
O        O      0.857300000000     0.306400000000     0.761400000000     0          
O        O      0.928700000000     0.302400000000     0.785400000000     0          
O        O      0.908000000000     0.357400000000     0.738100000000     0          
O        O      0.912200000000     0.286300000000     0.713700000000     0          
O        O      0.948800000000     0.500000000000     0.880000000000     0          
O        O      0.929500000000     0.446400000000     0.929500000000     0          
O        O      0.000000000000     0.449700000000     0.903200000000     0          
O        O      0.943800000000     0.428000000000     0.857800000000     0          
O        O      0.950100000000     0.357000000000     0.833000000000     0          
O        O      0.000000000000     0.409200000000     0.811100000000     0          
O        O      0.928900000000     0.412000000000     0.785700000000     0          
O        O      0.944200000000     0.285700000000     0.857200000000     0          
O        O      0.000000000000     0.305200000000     0.810200000000     0          
O        O      0.949100000000     0.214200000000     0.881100000000     0          
O        O      0.000000000000     0.265100000000     0.903700000000     0          
O        O      0.929200000000     0.268900000000     0.929200000000     0          
O        O      0.000000000000     0.163200000000     0.903400000000     0          
O        O      0.929200000000     0.159500000000     0.929200000000     0          
O        O      0.944000000000     0.142900000000     0.857100000000     0          
O        O      0.786000000000     0.302200000000     0.786000000000     0          
T        Si     0.901500000000     0.313100000000     0.749700000000     0          
T        Si     0.955500000000     0.456100000000     0.892500000000     0          
T        Si     0.955700000000     0.401500000000     0.821900000000     0          
T        Si     0.955800000000     0.312600000000     0.821500000000     0          
T        Si     0.955600000000     0.258500000000     0.892800000000     0          
T        Si     0.955600000000     0.170000000000     0.892700000000     0          
T        Si     0.812900000000     0.312900000000     0.750000000000     0          
T        Si     0.901600000000     0.401600000000     0.750000000000     0          
O        O      0.693600000000     0.857300000000     0.761400000000     0          
O        O      0.697600000000     0.928700000000     0.785400000000     0          
O        O      0.642600000000     0.908000000000     0.738100000000     0          
O        O      0.713700000000     0.912200000000     0.713700000000     0          
O        O      0.500000000000     0.948800000000     0.880000000000     0          
O        O      0.553600000000     0.929500000000     0.929500000000     0          
O        O      0.550300000000     0.000000000000     0.903200000000     0          
O        O      0.572000000000     0.943800000000     0.857800000000     0          
O        O      0.643000000000     0.950100000000     0.833000000000     0          
O        O      0.590800000000     0.000000000000     0.811100000000     0          
O        O      0.588000000000     0.928900000000     0.785700000000     0          
O        O      0.714300000000     0.944200000000     0.857200000000     0          
O        O      0.694800000000     0.000000000000     0.810200000000     0          
O        O      0.785800000000     0.949100000000     0.881100000000     0          
O        O      0.734900000000     0.000000000000     0.903700000000     0          
O        O      0.731100000000     0.929200000000     0.929200000000     0          
O        O      0.836800000000     0.000000000000     0.903400000000     0          
O        O      0.840500000000     0.929200000000     0.929200000000     0          
O        O      0.857100000000     0.944000000000     0.857100000000     0          
O        O      0.697800000000     0.786000000000     0.786000000000     0          
T        Si     0.686900000000     0.901500000000     0.749700000000     0          
T        Si     0.543900000000     0.955500000000     0.892500000000     0          
T        Si     0.598500000000     0.955700000000     0.821900000000     0          
T        Si     0.687400000000     0.955800000000     0.821500000000     0          
T        Si     0.741500000000     0.955600000000     0.892800000000     0          
T        Si     0.830000000000     0.955600000000     0.892700000000     0          
T        Si     0.687100000000     0.812900000000     0.750000000000     0          
T        Si     0.598400000000     0.901600000000     0.750000000000     0          
O        O      0.238600000000     0.142700000000     0.306400000000     0          
O        O      0.214600000000     0.071300000000     0.302400000000     0          
O        O      0.261900000000     0.092000000000     0.357400000000     0          
O        O      0.286300000000     0.087800000000     0.286300000000     0          
O        O      0.120000000000     0.051200000000     0.500000000000     0          
O        O      0.070500000000     0.070500000000     0.446400000000     0          
O        O      0.096800000000     0.000000000000     0.449700000000     0          
O        O      0.142200000000     0.056200000000     0.428000000000     0          
O        O      0.167000000000     0.049900000000     0.357000000000     0          
O        O      0.188900000000     0.000000000000     0.409200000000     0          
O        O      0.214300000000     0.071100000000     0.412000000000     0          
O        O      0.142800000000     0.055800000000     0.285700000000     0          
O        O      0.189800000000     0.000000000000     0.305200000000     0          
O        O      0.118900000000     0.050900000000     0.214200000000     0          
O        O      0.096300000000     0.000000000000     0.265100000000     0          
O        O      0.070800000000     0.070800000000     0.268900000000     0          
O        O      0.096600000000     0.000000000000     0.163200000000     0          
O        O      0.070800000000     0.070800000000     0.159500000000     0          
O        O      0.142900000000     0.056000000000     0.142900000000     0          
O        O      0.214000000000     0.214000000000     0.302200000000     0          
T        Si     0.250300000000     0.098500000000     0.313100000000     0          
T        Si     0.107500000000     0.044500000000     0.456100000000     0          
T        Si     0.178100000000     0.044300000000     0.401500000000     0          
T        Si     0.178500000000     0.044200000000     0.312600000000     0          
T        Si     0.107200000000     0.044400000000     0.258500000000     0          
T        Si     0.107300000000     0.044400000000     0.170000000000     0          
T        Si     0.250000000000     0.187100000000     0.312900000000     0          
T        Si     0.250000000000     0.098400000000     0.401600000000     0          
O        O      0.238600000000     0.857300000000     0.693600000000     0          
O        O      0.214600000000     0.928700000000     0.697600000000     0          
O        O      0.261900000000     0.908000000000     0.642600000000     0          
O        O      0.286300000000     0.912200000000     0.713700000000     0          
O        O      0.120000000000     0.948800000000     0.500000000000     0          
O        O      0.070500000000     0.929500000000     0.553600000000     0          
O        O      0.096800000000     0.000000000000     0.550300000000     0          
O        O      0.142200000000     0.943800000000     0.572000000000     0          
O        O      0.167000000000     0.950100000000     0.643000000000     0          
O        O      0.188900000000     0.000000000000     0.590800000000     0          
O        O      0.214300000000     0.928900000000     0.588000000000     0          
O        O      0.142800000000     0.944200000000     0.714300000000     0          
O        O      0.189800000000     0.000000000000     0.694800000000     0          
O        O      0.118900000000     0.949100000000     0.785800000000     0          
O        O      0.096300000000     0.000000000000     0.734900000000     0          
O        O      0.070800000000     0.929200000000     0.731100000000     0          
O        O      0.096600000000     0.000000000000     0.836800000000     0          
O        O      0.070800000000     0.929200000000     0.840500000000     0          
O        O      0.142900000000     0.944000000000     0.857100000000     0          
O        O      0.214000000000     0.786000000000     0.697800000000     0          
T        Si     0.250300000000     0.901500000000     0.686900000000     0          
T        Si     0.107500000000     0.955500000000     0.543900000000     0          
T        Si     0.178100000000     0.955700000000     0.598500000000     0          
T        Si     0.178500000000     0.955800000000     0.687400000000     0          
T        Si     0.107200000000     0.955600000000     0.741500000000     0          
T        Si     0.107300000000     0.955600000000     0.830000000000     0          
T        Si     0.250000000000     0.812900000000     0.687100000000     0          
T        Si     0.250000000000     0.901600000000     0.598400000000     0          
O        O      0.142700000000     0.238600000000     0.693600000000     0          
O        O      0.071300000000     0.214600000000     0.697600000000     0          
O        O      0.092000000000     0.261900000000     0.642600000000     0          
O        O      0.087800000000     0.286300000000     0.713700000000     0          
O        O      0.051200000000     0.120000000000     0.500000000000     0          
O        O      0.070500000000     0.070500000000     0.553600000000     0          
O        O      0.000000000000     0.096800000000     0.550300000000     0          
O        O      0.056200000000     0.142200000000     0.572000000000     0          
O        O      0.049900000000     0.167000000000     0.643000000000     0          
O        O      0.000000000000     0.188900000000     0.590800000000     0          
O        O      0.071100000000     0.214300000000     0.588000000000     0          
O        O      0.055800000000     0.142800000000     0.714300000000     0          
O        O      0.000000000000     0.189800000000     0.694800000000     0          
O        O      0.050900000000     0.118900000000     0.785800000000     0          
O        O      0.000000000000     0.096300000000     0.734900000000     0          
O        O      0.070800000000     0.070800000000     0.731100000000     0          
O        O      0.000000000000     0.096600000000     0.836800000000     0          
O        O      0.070800000000     0.070800000000     0.840500000000     0          
O        O      0.056000000000     0.142900000000     0.857100000000     0          
O        O      0.214000000000     0.214000000000     0.697800000000     0          
T        Si     0.098500000000     0.250300000000     0.686900000000     0          
T        Si     0.044500000000     0.107500000000     0.543900000000     0          
T        Si     0.044300000000     0.178100000000     0.598500000000     0          
T        Si     0.044200000000     0.178500000000     0.687400000000     0          
T        Si     0.044400000000     0.107200000000     0.741500000000     0          
T        Si     0.044400000000     0.107300000000     0.830000000000     0          
T        Si     0.187100000000     0.250000000000     0.687100000000     0          
T        Si     0.098400000000     0.250000000000     0.598400000000     0          
O        O      0.761400000000     0.142700000000     0.693600000000     0          
O        O      0.785400000000     0.071300000000     0.697600000000     0          
O        O      0.738100000000     0.092000000000     0.642600000000     0          
O        O      0.713700000000     0.087800000000     0.713700000000     0          
O        O      0.880000000000     0.051200000000     0.500000000000     0          
O        O      0.929500000000     0.070500000000     0.553600000000     0          
O        O      0.903200000000     0.000000000000     0.550300000000     0          
O        O      0.857800000000     0.056200000000     0.572000000000     0          
O        O      0.833000000000     0.049900000000     0.643000000000     0          
O        O      0.811100000000     0.000000000000     0.590800000000     0          
O        O      0.785700000000     0.071100000000     0.588000000000     0          
O        O      0.857200000000     0.055800000000     0.714300000000     0          
O        O      0.810200000000     0.000000000000     0.694800000000     0          
O        O      0.881100000000     0.050900000000     0.785800000000     0          
O        O      0.903700000000     0.000000000000     0.734900000000     0          
O        O      0.929200000000     0.070800000000     0.731100000000     0          
O        O      0.903400000000     0.000000000000     0.836800000000     0          
O        O      0.929200000000     0.070800000000     0.840500000000     0          
O        O      0.857100000000     0.056000000000     0.857100000000     0          
O        O      0.786000000000     0.214000000000     0.697800000000     0          
T        Si     0.749700000000     0.098500000000     0.686900000000     0          
T        Si     0.892500000000     0.044500000000     0.543900000000     0          
T        Si     0.821900000000     0.044300000000     0.598500000000     0          
T        Si     0.821500000000     0.044200000000     0.687400000000     0          
T        Si     0.892800000000     0.044400000000     0.741500000000     0          
T        Si     0.892700000000     0.044400000000     0.830000000000     0          
T        Si     0.750000000000     0.187100000000     0.687100000000     0          
T        Si     0.750000000000     0.098400000000     0.598400000000     0          
O        O      0.857300000000     0.761400000000     0.693600000000     0          
O        O      0.928700000000     0.785400000000     0.697600000000     0          
O        O      0.908000000000     0.738100000000     0.642600000000     0          
O        O      0.912200000000     0.713700000000     0.713700000000     0          
O        O      0.948800000000     0.880000000000     0.500000000000     0          
O        O      0.929500000000     0.929500000000     0.553600000000     0          
O        O      0.000000000000     0.903200000000     0.550300000000     0          
O        O      0.943800000000     0.857800000000     0.572000000000     0          
O        O      0.950100000000     0.833000000000     0.643000000000     0          
O        O      0.000000000000     0.811100000000     0.590800000000     0          
O        O      0.928900000000     0.785700000000     0.588000000000     0          
O        O      0.944200000000     0.857200000000     0.714300000000     0          
O        O      0.000000000000     0.810200000000     0.694800000000     0          
O        O      0.949100000000     0.881100000000     0.785800000000     0          
O        O      0.000000000000     0.903700000000     0.734900000000     0          
O        O      0.929200000000     0.929200000000     0.731100000000     0          
O        O      0.000000000000     0.903400000000     0.836800000000     0          
O        O      0.929200000000     0.929200000000     0.840500000000     0          
O        O      0.944000000000     0.857100000000     0.857100000000     0          
O        O      0.786000000000     0.786000000000     0.697800000000     0          
T        Si     0.901500000000     0.749700000000     0.686900000000     0          
T        Si     0.955500000000     0.892500000000     0.543900000000     0          
T        Si     0.955700000000     0.821900000000     0.598500000000     0          
T        Si     0.955800000000     0.821500000000     0.687400000000     0          
T        Si     0.955600000000     0.892800000000     0.741500000000     0          
T        Si     0.955600000000     0.892700000000     0.830000000000     0          
T        Si     0.812900000000     0.750000000000     0.687100000000     0          
T        Si     0.901600000000     0.750000000000     0.598400000000     0          
O        O      0.761400000000     0.857300000000     0.306400000000     0          
O        O      0.785400000000     0.928700000000     0.302400000000     0          
O        O      0.738100000000     0.908000000000     0.357400000000     0          
O        O      0.713700000000     0.912200000000     0.286300000000     0          
O        O      0.880000000000     0.948800000000     0.500000000000     0          
O        O      0.929500000000     0.929500000000     0.446400000000     0          
O        O      0.903200000000     0.000000000000     0.449700000000     0          
O        O      0.857800000000     0.943800000000     0.428000000000     0          
O        O      0.833000000000     0.950100000000     0.357000000000     0          
O        O      0.811100000000     0.000000000000     0.409200000000     0          
O        O      0.785700000000     0.928900000000     0.412000000000     0          
O        O      0.857200000000     0.944200000000     0.285700000000     0          
O        O      0.810200000000     0.000000000000     0.305200000000     0          
O        O      0.881100000000     0.949100000000     0.214200000000     0          
O        O      0.903700000000     0.000000000000     0.265100000000     0          
O        O      0.929200000000     0.929200000000     0.268900000000     0          
O        O      0.903400000000     0.000000000000     0.163200000000     0          
O        O      0.929200000000     0.929200000000     0.159500000000     0          
O        O      0.857100000000     0.944000000000     0.142900000000     0          
O        O      0.786000000000     0.786000000000     0.302200000000     0          
T        Si     0.749700000000     0.901500000000     0.313100000000     0          
T        Si     0.892500000000     0.955500000000     0.456100000000     0          
T        Si     0.821900000000     0.955700000000     0.401500000000     0          
T        Si     0.821500000000     0.955800000000     0.312600000000     0          
T        Si     0.892800000000     0.955600000000     0.258500000000     0          
T        Si     0.892700000000     0.955600000000     0.170000000000     0          
T        Si     0.750000000000     0.812900000000     0.312900000000     0          
T        Si     0.750000000000     0.901600000000     0.401600000000     0          
O        O      0.142700000000     0.761400000000     0.306400000000     0          
O        O      0.071300000000     0.785400000000     0.302400000000     0          
O        O      0.092000000000     0.738100000000     0.357400000000     0          
O        O      0.087800000000     0.713700000000     0.286300000000     0          
O        O      0.051200000000     0.880000000000     0.500000000000     0          
O        O      0.070500000000     0.929500000000     0.446400000000     0          
O        O      0.000000000000     0.903200000000     0.449700000000     0          
O        O      0.056200000000     0.857800000000     0.428000000000     0          
O        O      0.049900000000     0.833000000000     0.357000000000     0          
O        O      0.000000000000     0.811100000000     0.409200000000     0          
O        O      0.071100000000     0.785700000000     0.412000000000     0          
O        O      0.055800000000     0.857200000000     0.285700000000     0          
O        O      0.000000000000     0.810200000000     0.305200000000     0          
O        O      0.050900000000     0.881100000000     0.214200000000     0          
O        O      0.000000000000     0.903700000000     0.265100000000     0          
O        O      0.070800000000     0.929200000000     0.268900000000     0          
O        O      0.000000000000     0.903400000000     0.163200000000     0          
O        O      0.070800000000     0.929200000000     0.159500000000     0          
O        O      0.056000000000     0.857100000000     0.142900000000     0          
O        O      0.214000000000     0.786000000000     0.302200000000     0          
T        Si     0.098500000000     0.749700000000     0.313100000000     0          
T        Si     0.044500000000     0.892500000000     0.456100000000     0          
T        Si     0.044300000000     0.821900000000     0.401500000000     0          
T        Si     0.044200000000     0.821500000000     0.312600000000     0          
T        Si     0.044400000000     0.892800000000     0.258500000000     0          
T        Si     0.044400000000     0.892700000000     0.170000000000     0          
T        Si     0.187100000000     0.750000000000     0.312900000000     0          
T        Si     0.098400000000     0.750000000000     0.401600000000     0          
O        O      0.857300000000     0.238600000000     0.306400000000     0          
O        O      0.928700000000     0.214600000000     0.302400000000     0          
O        O      0.908000000000     0.261900000000     0.357400000000     0          
O        O      0.912200000000     0.286300000000     0.286300000000     0          
O        O      0.948800000000     0.120000000000     0.500000000000     0          
O        O      0.929500000000     0.070500000000     0.446400000000     0          
O        O      0.000000000000     0.096800000000     0.449700000000     0          
O        O      0.943800000000     0.142200000000     0.428000000000     0          
O        O      0.950100000000     0.167000000000     0.357000000000     0          
O        O      0.000000000000     0.188900000000     0.409200000000     0          
O        O      0.928900000000     0.214300000000     0.412000000000     0          
O        O      0.944200000000     0.142800000000     0.285700000000     0          
O        O      0.000000000000     0.189800000000     0.305200000000     0          
O        O      0.949100000000     0.118900000000     0.214200000000     0          
O        O      0.000000000000     0.096300000000     0.265100000000     0          
O        O      0.929200000000     0.070800000000     0.268900000000     0          
O        O      0.000000000000     0.096600000000     0.163200000000     0          
O        O      0.929200000000     0.070800000000     0.159500000000     0          
O        O      0.944000000000     0.142900000000     0.142900000000     0          
O        O      0.786000000000     0.214000000000     0.302200000000     0          
T        Si     0.901500000000     0.250300000000     0.313100000000     0          
T        Si     0.955500000000     0.107500000000     0.456100000000     0          
T        Si     0.955700000000     0.178100000000     0.401500000000     0          
T        Si     0.955800000000     0.178500000000     0.312600000000     0          
T        Si     0.955600000000     0.107200000000     0.258500000000     0          
T        Si     0.955600000000     0.107300000000     0.170000000000     0          
T        Si     0.812900000000     0.250000000000     0.312900000000     0          
T        Si     0.901600000000     0.250000000000     0.401600000000     0          
O        O      0.693600000000     0.761400000000     0.857300000000     0          
O        O      0.697600000000     0.785400000000     0.928700000000     0          
O        O      0.642600000000     0.738100000000     0.908000000000     0          
O        O      0.572000000000     0.857800000000     0.943800000000     0          
O        O      0.643000000000     0.833000000000     0.950100000000     0          
O        O      0.588000000000     0.785700000000     0.928900000000     0          
O        O      0.714300000000     0.857200000000     0.944200000000     0          
O        O      0.785800000000     0.881100000000     0.949100000000     0          
T        Si     0.686900000000     0.749700000000     0.901500000000     0          
T        Si     0.543900000000     0.892500000000     0.955500000000     0          
T        Si     0.598500000000     0.821900000000     0.955700000000     0          
T        Si     0.687400000000     0.821500000000     0.955800000000     0          
T        Si     0.741500000000     0.892800000000     0.955600000000     0          
T        Si     0.830000000000     0.892700000000     0.955600000000     0          
T        Si     0.687100000000     0.750000000000     0.812900000000     0          
T        Si     0.598400000000     0.750000000000     0.901600000000     0          
O        O      0.238600000000     0.693600000000     0.857300000000     0          
O        O      0.214600000000     0.697600000000     0.928700000000     0          
O        O      0.261900000000     0.642600000000     0.908000000000     0          
O        O      0.142200000000     0.572000000000     0.943800000000     0          
O        O      0.167000000000     0.643000000000     0.950100000000     0          
O        O      0.214300000000     0.588000000000     0.928900000000     0          
O        O      0.142800000000     0.714300000000     0.944200000000     0          
O        O      0.118900000000     0.785800000000     0.949100000000     0          
T        Si     0.250300000000     0.686900000000     0.901500000000     0          
T        Si     0.107500000000     0.543900000000     0.955500000000     0          
T        Si     0.178100000000     0.598500000000     0.955700000000     0          
T        Si     0.178500000000     0.687400000000     0.955800000000     0          
T        Si     0.107200000000     0.741500000000     0.955600000000     0          
T        Si     0.107300000000     0.830000000000     0.955600000000     0          
T        Si     0.250000000000     0.687100000000     0.812900000000     0          
T        Si     0.250000000000     0.598400000000     0.901600000000     0          
O        O      0.306400000000     0.238600000000     0.857300000000     0          
O        O      0.302400000000     0.214600000000     0.928700000000     0          
O        O      0.357400000000     0.261900000000     0.908000000000     0          
O        O      0.428000000000     0.142200000000     0.943800000000     0          
O        O      0.357000000000     0.167000000000     0.950100000000     0          
O        O      0.412000000000     0.214300000000     0.928900000000     0          
O        O      0.285700000000     0.142800000000     0.944200000000     0          
O        O      0.214200000000     0.118900000000     0.949100000000     0          
T        Si     0.313100000000     0.250300000000     0.901500000000     0          
T        Si     0.456100000000     0.107500000000     0.955500000000     0          
T        Si     0.401500000000     0.178100000000     0.955700000000     0          
T        Si     0.312600000000     0.178500000000     0.955800000000     0          
T        Si     0.258500000000     0.107200000000     0.955600000000     0          
T        Si     0.170000000000     0.107300000000     0.955600000000     0          
T        Si     0.312900000000     0.250000000000     0.812900000000     0          
T        Si     0.401600000000     0.250000000000     0.901600000000     0          
O        O      0.761400000000     0.306400000000     0.857300000000     0          
O        O      0.785400000000     0.302400000000     0.928700000000     0          
O        O      0.738100000000     0.357400000000     0.908000000000     0          
O        O      0.857800000000     0.428000000000     0.943800000000     0          
O        O      0.833000000000     0.357000000000     0.950100000000     0          
O        O      0.785700000000     0.412000000000     0.928900000000     0          
O        O      0.857200000000     0.285700000000     0.944200000000     0          
O        O      0.881100000000     0.214200000000     0.949100000000     0          
T        Si     0.749700000000     0.313100000000     0.901500000000     0          
T        Si     0.892500000000     0.456100000000     0.955500000000     0          
T        Si     0.821900000000     0.401500000000     0.955700000000     0          
T        Si     0.821500000000     0.312600000000     0.955800000000     0          
T        Si     0.892800000000     0.258500000000     0.955600000000     0          
T        Si     0.892700000000     0.170000000000     0.955600000000     0          
T        Si     0.750000000000     0.312900000000     0.812900000000     0          
T        Si     0.750000000000     0.401600000000     0.901600000000     0          
O        O      0.693600000000     0.238600000000     0.142700000000     0          
O        O      0.697600000000     0.214600000000     0.071300000000     0          
O        O      0.642600000000     0.261900000000     0.092000000000     0          
O        O      0.572000000000     0.142200000000     0.056200000000     0          
O        O      0.643000000000     0.167000000000     0.049900000000     0          
O        O      0.588000000000     0.214300000000     0.071100000000     0          
O        O      0.714300000000     0.142800000000     0.055800000000     0          
O        O      0.785800000000     0.118900000000     0.050900000000     0          
T        Si     0.686900000000     0.250300000000     0.098500000000     0          
T        Si     0.543900000000     0.107500000000     0.044500000000     0          
T        Si     0.598500000000     0.178100000000     0.044300000000     0          
T        Si     0.687400000000     0.178500000000     0.044200000000     0          
T        Si     0.741500000000     0.107200000000     0.044400000000     0          
T        Si     0.830000000000     0.107300000000     0.044400000000     0          
T        Si     0.687100000000     0.250000000000     0.187100000000     0          
T        Si     0.598400000000     0.250000000000     0.098400000000     0          
O        O      0.761400000000     0.693600000000     0.142700000000     0          
O        O      0.785400000000     0.697600000000     0.071300000000     0          
O        O      0.738100000000     0.642600000000     0.092000000000     0          
O        O      0.857800000000     0.572000000000     0.056200000000     0          
O        O      0.833000000000     0.643000000000     0.049900000000     0          
O        O      0.785700000000     0.588000000000     0.071100000000     0          
O        O      0.857200000000     0.714300000000     0.055800000000     0          
O        O      0.881100000000     0.785800000000     0.050900000000     0          
T        Si     0.749700000000     0.686900000000     0.098500000000     0          
T        Si     0.892500000000     0.543900000000     0.044500000000     0          
T        Si     0.821900000000     0.598500000000     0.044300000000     0          
T        Si     0.821500000000     0.687400000000     0.044200000000     0          
T        Si     0.892800000000     0.741500000000     0.044400000000     0          
T        Si     0.892700000000     0.830000000000     0.044400000000     0          
T        Si     0.750000000000     0.687100000000     0.187100000000     0          
T        Si     0.750000000000     0.598400000000     0.098400000000     0          
O        O      0.306400000000     0.761400000000     0.142700000000     0          
O        O      0.302400000000     0.785400000000     0.071300000000     0          
O        O      0.357400000000     0.738100000000     0.092000000000     0          
O        O      0.428000000000     0.857800000000     0.056200000000     0          
O        O      0.357000000000     0.833000000000     0.049900000000     0          
O        O      0.412000000000     0.785700000000     0.071100000000     0          
O        O      0.285700000000     0.857200000000     0.055800000000     0          
O        O      0.214200000000     0.881100000000     0.050900000000     0          
T        Si     0.313100000000     0.749700000000     0.098500000000     0          
T        Si     0.456100000000     0.892500000000     0.044500000000     0          
T        Si     0.401500000000     0.821900000000     0.044300000000     0          
T        Si     0.312600000000     0.821500000000     0.044200000000     0          
T        Si     0.258500000000     0.892800000000     0.044400000000     0          
T        Si     0.170000000000     0.892700000000     0.044400000000     0          
T        Si     0.312900000000     0.750000000000     0.187100000000     0          
T        Si     0.401600000000     0.750000000000     0.098400000000     0          
O        O      0.238600000000     0.306400000000     0.142700000000     0          
O        O      0.214600000000     0.302400000000     0.071300000000     0          
O        O      0.261900000000     0.357400000000     0.092000000000     0          
O        O      0.142200000000     0.428000000000     0.056200000000     0          
O        O      0.167000000000     0.357000000000     0.049900000000     0          
O        O      0.214300000000     0.412000000000     0.071100000000     0          
O        O      0.142800000000     0.285700000000     0.055800000000     0          
O        O      0.118900000000     0.214200000000     0.050900000000     0          
T        Si     0.250300000000     0.313100000000     0.098500000000     0          
T        Si     0.107500000000     0.456100000000     0.044500000000     0          
T        Si     0.178100000000     0.401500000000     0.044300000000     0          
T        Si     0.178500000000     0.312600000000     0.044200000000     0          
T        Si     0.107200000000     0.258500000000     0.044400000000     0          
T        Si     0.107300000000     0.170000000000     0.044400000000     0          
T        Si     0.250000000000     0.312900000000     0.187100000000     0          
T        Si     0.250000000000     0.401600000000     0.098400000000     0          
O        O      0.857300000000     0.693600000000     0.761400000000     0          
O        O      0.928700000000     0.697600000000     0.785400000000     0          
O        O      0.908000000000     0.642600000000     0.738100000000     0          
O        O      0.943800000000     0.572000000000     0.857800000000     0          
O        O      0.950100000000     0.643000000000     0.833000000000     0          
O        O      0.928900000000     0.588000000000     0.785700000000     0          
O        O      0.944200000000     0.714300000000     0.857200000000     0          
O        O      0.949100000000     0.785800000000     0.881100000000     0          
T        Si     0.901500000000     0.686900000000     0.749700000000     0          
T        Si     0.955500000000     0.543900000000     0.892500000000     0          
T        Si     0.955700000000     0.598500000000     0.821900000000     0          
T        Si     0.955800000000     0.687400000000     0.821500000000     0          
T        Si     0.955600000000     0.741500000000     0.892800000000     0          
T        Si     0.955600000000     0.830000000000     0.892700000000     0          
T        Si     0.812900000000     0.687100000000     0.750000000000     0          
T        Si     0.901600000000     0.598400000000     0.750000000000     0          
O        O      0.306400000000     0.857300000000     0.761400000000     0          
O        O      0.302400000000     0.928700000000     0.785400000000     0          
O        O      0.357400000000     0.908000000000     0.738100000000     0          
O        O      0.428000000000     0.943800000000     0.857800000000     0          
O        O      0.357000000000     0.950100000000     0.833000000000     0          
O        O      0.412000000000     0.928900000000     0.785700000000     0          
O        O      0.285700000000     0.944200000000     0.857200000000     0          
O        O      0.214200000000     0.949100000000     0.881100000000     0          
T        Si     0.313100000000     0.901500000000     0.749700000000     0          
T        Si     0.456100000000     0.955500000000     0.892500000000     0          
T        Si     0.401500000000     0.955700000000     0.821900000000     0          
T        Si     0.312600000000     0.955800000000     0.821500000000     0          
T        Si     0.258500000000     0.955600000000     0.892800000000     0          
T        Si     0.170000000000     0.955600000000     0.892700000000     0          
T        Si     0.312900000000     0.812900000000     0.750000000000     0          
T        Si     0.401600000000     0.901600000000     0.750000000000     0          
O        O      0.142700000000     0.306400000000     0.761400000000     0          
O        O      0.071300000000     0.302400000000     0.785400000000     0          
O        O      0.092000000000     0.357400000000     0.738100000000     0          
O        O      0.056200000000     0.428000000000     0.857800000000     0          
O        O      0.049900000000     0.357000000000     0.833000000000     0          
O        O      0.071100000000     0.412000000000     0.785700000000     0          
O        O      0.055800000000     0.285700000000     0.857200000000     0          
O        O      0.050900000000     0.214200000000     0.881100000000     0          
T        Si     0.098500000000     0.313100000000     0.749700000000     0          
T        Si     0.044500000000     0.456100000000     0.892500000000     0          
T        Si     0.044300000000     0.401500000000     0.821900000000     0          
T        Si     0.044200000000     0.312600000000     0.821500000000     0          
T        Si     0.044400000000     0.258500000000     0.892800000000     0          
T        Si     0.044400000000     0.170000000000     0.892700000000     0          
T        Si     0.187100000000     0.312900000000     0.750000000000     0          
T        Si     0.098400000000     0.401600000000     0.750000000000     0          
O        O      0.693600000000     0.142700000000     0.761400000000     0          
O        O      0.697600000000     0.071300000000     0.785400000000     0          
O        O      0.642600000000     0.092000000000     0.738100000000     0          
O        O      0.572000000000     0.056200000000     0.857800000000     0          
O        O      0.643000000000     0.049900000000     0.833000000000     0          
O        O      0.588000000000     0.071100000000     0.785700000000     0          
O        O      0.714300000000     0.055800000000     0.857200000000     0          
O        O      0.785800000000     0.050900000000     0.881100000000     0          
T        Si     0.686900000000     0.098500000000     0.749700000000     0          
T        Si     0.543900000000     0.044500000000     0.892500000000     0          
T        Si     0.598500000000     0.044300000000     0.821900000000     0          
T        Si     0.687400000000     0.044200000000     0.821500000000     0          
T        Si     0.741500000000     0.044400000000     0.892800000000     0          
T        Si     0.830000000000     0.044400000000     0.892700000000     0          
T        Si     0.687100000000     0.187100000000     0.750000000000     0          
T        Si     0.598400000000     0.098400000000     0.750000000000     0          
O        O      0.857300000000     0.306400000000     0.238600000000     0          
O        O      0.928700000000     0.302400000000     0.214600000000     0          
O        O      0.908000000000     0.357400000000     0.261900000000     0          
O        O      0.943800000000     0.428000000000     0.142200000000     0          
O        O      0.950100000000     0.357000000000     0.167000000000     0          
O        O      0.928900000000     0.412000000000     0.214300000000     0          
O        O      0.944200000000     0.285700000000     0.142800000000     0          
O        O      0.949100000000     0.214200000000     0.118900000000     0          
T        Si     0.901500000000     0.313100000000     0.250300000000     0          
T        Si     0.955500000000     0.456100000000     0.107500000000     0          
T        Si     0.955700000000     0.401500000000     0.178100000000     0          
T        Si     0.955800000000     0.312600000000     0.178500000000     0          
T        Si     0.955600000000     0.258500000000     0.107200000000     0          
T        Si     0.955600000000     0.170000000000     0.107300000000     0          
T        Si     0.812900000000     0.312900000000     0.250000000000     0          
T        Si     0.901600000000     0.401600000000     0.250000000000     0          
O        O      0.693600000000     0.857300000000     0.238600000000     0          
O        O      0.697600000000     0.928700000000     0.214600000000     0          
O        O      0.642600000000     0.908000000000     0.261900000000     0          
O        O      0.572000000000     0.943800000000     0.142200000000     0          
O        O      0.643000000000     0.950100000000     0.167000000000     0          
O        O      0.588000000000     0.928900000000     0.214300000000     0          
O        O      0.714300000000     0.944200000000     0.142800000000     0          
O        O      0.785800000000     0.949100000000     0.118900000000     0          
T        Si     0.686900000000     0.901500000000     0.250300000000     0          
T        Si     0.543900000000     0.955500000000     0.107500000000     0          
T        Si     0.598500000000     0.955700000000     0.178100000000     0          
T        Si     0.687400000000     0.955800000000     0.178500000000     0          
T        Si     0.741500000000     0.955600000000     0.107200000000     0          
T        Si     0.830000000000     0.955600000000     0.107300000000     0          
T        Si     0.687100000000     0.812900000000     0.250000000000     0          
T        Si     0.598400000000     0.901600000000     0.250000000000     0          
O        O      0.142700000000     0.693600000000     0.238600000000     0          
O        O      0.071300000000     0.697600000000     0.214600000000     0          
O        O      0.092000000000     0.642600000000     0.261900000000     0          
O        O      0.056200000000     0.572000000000     0.142200000000     0          
O        O      0.049900000000     0.643000000000     0.167000000000     0          
O        O      0.071100000000     0.588000000000     0.214300000000     0          
O        O      0.055800000000     0.714300000000     0.142800000000     0          
O        O      0.050900000000     0.785800000000     0.118900000000     0          
T        Si     0.098500000000     0.686900000000     0.250300000000     0          
T        Si     0.044500000000     0.543900000000     0.107500000000     0          
T        Si     0.044300000000     0.598500000000     0.178100000000     0          
T        Si     0.044200000000     0.687400000000     0.178500000000     0          
T        Si     0.044400000000     0.741500000000     0.107200000000     0          
T        Si     0.044400000000     0.830000000000     0.107300000000     0          
T        Si     0.187100000000     0.687100000000     0.250000000000     0          
T        Si     0.098400000000     0.598400000000     0.250000000000     0          
O        O      0.306400000000     0.142700000000     0.238600000000     0          
O        O      0.302400000000     0.071300000000     0.214600000000     0          
O        O      0.357400000000     0.092000000000     0.261900000000     0          
O        O      0.428000000000     0.056200000000     0.142200000000     0          
O        O      0.357000000000     0.049900000000     0.167000000000     0          
O        O      0.412000000000     0.071100000000     0.214300000000     0          
O        O      0.285700000000     0.055800000000     0.142800000000     0          
O        O      0.214200000000     0.050900000000     0.118900000000     0          
T        Si     0.313100000000     0.098500000000     0.250300000000     0          
T        Si     0.456100000000     0.044500000000     0.107500000000     0          
T        Si     0.401500000000     0.044300000000     0.178100000000     0          
T        Si     0.312600000000     0.044200000000     0.178500000000     0          
T        Si     0.258500000000     0.044400000000     0.107200000000     0          
T        Si     0.170000000000     0.044400000000     0.107300000000     0          
T        Si     0.312900000000     0.187100000000     0.250000000000     0          
T        Si     0.401600000000     0.098400000000     0.250000000000     0          
O        O      0.761400000000     0.857300000000     0.693600000000     0          
O        O      0.785400000000     0.928700000000     0.697600000000     0          
O        O      0.738100000000     0.908000000000     0.642600000000     0          
O        O      0.857800000000     0.943800000000     0.572000000000     0          
O        O      0.833000000000     0.950100000000     0.643000000000     0          
O        O      0.785700000000     0.928900000000     0.588000000000     0          
O        O      0.857200000000     0.944200000000     0.714300000000     0          
O        O      0.881100000000     0.949100000000     0.785800000000     0          
T        Si     0.749700000000     0.901500000000     0.686900000000     0          
T        Si     0.892500000000     0.955500000000     0.543900000000     0          
T        Si     0.821900000000     0.955700000000     0.598500000000     0          
T        Si     0.821500000000     0.955800000000     0.687400000000     0          
T        Si     0.892800000000     0.955600000000     0.741500000000     0          
T        Si     0.892700000000     0.955600000000     0.830000000000     0          
T        Si     0.750000000000     0.812900000000     0.687100000000     0          
T        Si     0.750000000000     0.901600000000     0.598400000000     0          
O        O      0.761400000000     0.142700000000     0.306400000000     0          
O        O      0.785400000000     0.071300000000     0.302400000000     0          
O        O      0.738100000000     0.092000000000     0.357400000000     0          
O        O      0.857800000000     0.056200000000     0.428000000000     0          
O        O      0.833000000000     0.049900000000     0.357000000000     0          
O        O      0.785700000000     0.071100000000     0.412000000000     0          
O        O      0.857200000000     0.055800000000     0.285700000000     0          
O        O      0.881100000000     0.050900000000     0.214200000000     0          
T        Si     0.749700000000     0.098500000000     0.313100000000     0          
T        Si     0.892500000000     0.044500000000     0.456100000000     0          
T        Si     0.821900000000     0.044300000000     0.401500000000     0          
T        Si     0.821500000000     0.044200000000     0.312600000000     0          
T        Si     0.892800000000     0.044400000000     0.258500000000     0          
T        Si     0.892700000000     0.044400000000     0.170000000000     0          
T        Si     0.750000000000     0.187100000000     0.312900000000     0          
T        Si     0.750000000000     0.098400000000     0.401600000000     0          
O        O      0.857300000000     0.761400000000     0.306400000000     0          
O        O      0.928700000000     0.785400000000     0.302400000000     0          
O        O      0.908000000000     0.738100000000     0.357400000000     0          
O        O      0.943800000000     0.857800000000     0.428000000000     0          
O        O      0.950100000000     0.833000000000     0.357000000000     0          
O        O      0.928900000000     0.785700000000     0.412000000000     0          
O        O      0.944200000000     0.857200000000     0.285700000000     0          
O        O      0.949100000000     0.881100000000     0.214200000000     0          
T        Si     0.901500000000     0.749700000000     0.313100000000     0          
T        Si     0.955500000000     0.892500000000     0.456100000000     0          
T        Si     0.955700000000     0.821900000000     0.401500000000     0          
T        Si     0.955800000000     0.821500000000     0.312600000000     0          
T        Si     0.955600000000     0.892800000000     0.258500000000     0          
T        Si     0.955600000000     0.892700000000     0.170000000000     0          
T        Si     0.812900000000     0.750000000000     0.312900000000     0          
T        Si     0.901600000000     0.750000000000     0.401600000000     0          
O        O      0.238600000000     0.857300000000     0.306400000000     0          
O        O      0.214600000000     0.928700000000     0.302400000000     0          
O        O      0.261900000000     0.908000000000     0.357400000000     0          
O        O      0.142200000000     0.943800000000     0.428000000000     0          
O        O      0.167000000000     0.950100000000     0.357000000000     0          
O        O      0.214300000000     0.928900000000     0.412000000000     0          
O        O      0.142800000000     0.944200000000     0.285700000000     0          
O        O      0.118900000000     0.949100000000     0.214200000000     0          
T        Si     0.250300000000     0.901500000000     0.313100000000     0          
T        Si     0.107500000000     0.955500000000     0.456100000000     0          
T        Si     0.178100000000     0.955700000000     0.401500000000     0          
T        Si     0.178500000000     0.955800000000     0.312600000000     0          
T        Si     0.107200000000     0.955600000000     0.258500000000     0          
T        Si     0.107300000000     0.955600000000     0.170000000000     0          
T        Si     0.250000000000     0.812900000000     0.312900000000     0          
T        Si     0.250000000000     0.901600000000     0.401600000000     0          
O        O      0.142700000000     0.238600000000     0.306400000000     0          
O        O      0.071300000000     0.214600000000     0.302400000000     0          
O        O      0.092000000000     0.261900000000     0.357400000000     0          
O        O      0.056200000000     0.142200000000     0.428000000000     0          
O        O      0.049900000000     0.167000000000     0.357000000000     0          
O        O      0.071100000000     0.214300000000     0.412000000000     0          
O        O      0.055800000000     0.142800000000     0.285700000000     0          
O        O      0.050900000000     0.118900000000     0.214200000000     0          
T        Si     0.098500000000     0.250300000000     0.313100000000     0          
T        Si     0.044500000000     0.107500000000     0.456100000000     0          
T        Si     0.044300000000     0.178100000000     0.401500000000     0          
T        Si     0.044200000000     0.178500000000     0.312600000000     0          
T        Si     0.044400000000     0.107200000000     0.258500000000     0          
T        Si     0.044400000000     0.107300000000     0.170000000000     0          
T        Si     0.187100000000     0.250000000000     0.312900000000     0          
T        Si     0.098400000000     0.250000000000     0.401600000000     0          
O        O      0.238600000000     0.142700000000     0.693600000000     0          
O        O      0.214600000000     0.071300000000     0.697600000000     0          
O        O      0.261900000000     0.092000000000     0.642600000000     0          
O        O      0.142200000000     0.056200000000     0.572000000000     0          
O        O      0.167000000000     0.049900000000     0.643000000000     0          
O        O      0.214300000000     0.071100000000     0.588000000000     0          
O        O      0.142800000000     0.055800000000     0.714300000000     0          
O        O      0.118900000000     0.050900000000     0.785800000000     0          
T        Si     0.250300000000     0.098500000000     0.686900000000     0          
T        Si     0.107500000000     0.044500000000     0.543900000000     0          
T        Si     0.178100000000     0.044300000000     0.598500000000     0          
T        Si     0.178500000000     0.044200000000     0.687400000000     0          
T        Si     0.107200000000     0.044400000000     0.741500000000     0          
T        Si     0.107300000000     0.044400000000     0.830000000000     0          
T        Si     0.250000000000     0.187100000000     0.687100000000     0          
T        Si     0.250000000000     0.098400000000     0.598400000000     0          
O        O      0.857300000000     0.238600000000     0.693600000000     0          
O        O      0.928700000000     0.214600000000     0.697600000000     0          
O        O      0.908000000000     0.261900000000     0.642600000000     0          
O        O      0.943800000000     0.142200000000     0.572000000000     0          
O        O      0.950100000000     0.167000000000     0.643000000000     0          
O        O      0.928900000000     0.214300000000     0.588000000000     0          
O        O      0.944200000000     0.142800000000     0.714300000000     0          
O        O      0.949100000000     0.118900000000     0.785800000000     0          
T        Si     0.901500000000     0.250300000000     0.686900000000     0          
T        Si     0.955500000000     0.107500000000     0.543900000000     0          
T        Si     0.955700000000     0.178100000000     0.598500000000     0          
T        Si     0.955800000000     0.178500000000     0.687400000000     0          
T        Si     0.955600000000     0.107200000000     0.741500000000     0          
T        Si     0.955600000000     0.107300000000     0.830000000000     0          
T        Si     0.812900000000     0.250000000000     0.687100000000     0          
T        Si     0.901600000000     0.250000000000     0.598400000000     0          
O        O      0.142700000000     0.761400000000     0.693600000000     0          
O        O      0.071300000000     0.785400000000     0.697600000000     0          
O        O      0.092000000000     0.738100000000     0.642600000000     0          
O        O      0.056200000000     0.857800000000     0.572000000000     0          
O        O      0.049900000000     0.833000000000     0.643000000000     0          
O        O      0.071100000000     0.785700000000     0.588000000000     0          
O        O      0.055800000000     0.857200000000     0.714300000000     0          
O        O      0.050900000000     0.881100000000     0.785800000000     0          
T        Si     0.098500000000     0.749700000000     0.686900000000     0          
T        Si     0.044500000000     0.892500000000     0.543900000000     0          
T        Si     0.044300000000     0.821900000000     0.598500000000     0          
T        Si     0.044200000000     0.821500000000     0.687400000000     0          
T        Si     0.044400000000     0.892800000000     0.741500000000     0          
T        Si     0.044400000000     0.892700000000     0.830000000000     0          
T        Si     0.187100000000     0.750000000000     0.687100000000     0          
T        Si     0.098400000000     0.750000000000     0.598400000000     0          
O        O      0.806400000000     0.738600000000     0.642700000000     0          
O        O      0.802400000000     0.714600000000     0.571300000000     0          
O        O      0.857400000000     0.761900000000     0.592000000000     0          
O        O      0.786300000000     0.786300000000     0.587800000000     0          
O        O      0.000000000000     0.620000000000     0.551200000000     0          
O        O      0.946400000000     0.570500000000     0.570500000000     0          
O        O      0.949700000000     0.596800000000     0.500000000000     0          
O        O      0.928000000000     0.642200000000     0.556200000000     0          
O        O      0.857000000000     0.667000000000     0.549900000000     0          
O        O      0.909200000000     0.688900000000     0.500000000000     0          
O        O      0.912000000000     0.714300000000     0.571100000000     0          
O        O      0.785700000000     0.642800000000     0.555800000000     0          
O        O      0.805200000000     0.689800000000     0.500000000000     0          
O        O      0.714200000000     0.618900000000     0.550900000000     0          
O        O      0.765100000000     0.596300000000     0.500000000000     0          
O        O      0.768900000000     0.570800000000     0.570800000000     0          
O        O      0.663200000000     0.596600000000     0.500000000000     0          
O        O      0.659500000000     0.570800000000     0.570800000000     0          
O        O      0.642900000000     0.642900000000     0.556000000000     0          
O        O      0.802200000000     0.714000000000     0.714000000000     0          
T        Si     0.813100000000     0.750300000000     0.598500000000     0          
T        Si     0.956100000000     0.607500000000     0.544500000000     0          
T        Si     0.901500000000     0.678100000000     0.544300000000     0          
T        Si     0.812600000000     0.678500000000     0.544200000000     0          
T        Si     0.758500000000     0.607200000000     0.544400000000     0          
T        Si     0.670000000000     0.607300000000     0.544400000000     0          
O        O      0.261400000000     0.806400000000     0.642700000000     0          
O        O      0.285400000000     0.802400000000     0.571300000000     0          
O        O      0.238100000000     0.857400000000     0.592000000000     0          
O        O      0.213700000000     0.786300000000     0.587800000000     0          
O        O      0.380000000000     0.000000000000     0.551200000000     0          
O        O      0.429500000000     0.946400000000     0.570500000000     0          
O        O      0.403200000000     0.949700000000     0.500000000000     0          
O        O      0.357800000000     0.928000000000     0.556200000000     0          
O        O      0.333000000000     0.857000000000     0.549900000000     0          
O        O      0.311100000000     0.909200000000     0.500000000000     0          
O        O      0.285700000000     0.912000000000     0.571100000000     0          
O        O      0.357200000000     0.785700000000     0.555800000000     0          
O        O      0.310200000000     0.805200000000     0.500000000000     0          
O        O      0.381100000000     0.714200000000     0.550900000000     0          
O        O      0.403700000000     0.765100000000     0.500000000000     0          
O        O      0.429200000000     0.768900000000     0.570800000000     0          
O        O      0.403400000000     0.663200000000     0.500000000000     0          
O        O      0.429200000000     0.659500000000     0.570800000000     0          
O        O      0.357100000000     0.642900000000     0.556000000000     0          
O        O      0.286000000000     0.802200000000     0.714000000000     0          
T        Si     0.249700000000     0.813100000000     0.598500000000     0          
T        Si     0.392500000000     0.956100000000     0.544500000000     0          
T        Si     0.321900000000     0.901500000000     0.544300000000     0          
T        Si     0.321500000000     0.812600000000     0.544200000000     0          
T        Si     0.392800000000     0.758500000000     0.544400000000     0          
T        Si     0.392700000000     0.670000000000     0.544400000000     0          
O        O      0.193600000000     0.261400000000     0.642700000000     0          
O        O      0.197600000000     0.285400000000     0.571300000000     0          
O        O      0.142600000000     0.238100000000     0.592000000000     0          
O        O      0.213700000000     0.213700000000     0.587800000000     0          
O        O      0.000000000000     0.380000000000     0.551200000000     0          
O        O      0.053600000000     0.429500000000     0.570500000000     0          
O        O      0.050300000000     0.403200000000     0.500000000000     0          
O        O      0.072000000000     0.357800000000     0.556200000000     0          
O        O      0.143000000000     0.333000000000     0.549900000000     0          
O        O      0.090800000000     0.311100000000     0.500000000000     0          
O        O      0.088000000000     0.285700000000     0.571100000000     0          
O        O      0.214300000000     0.357200000000     0.555800000000     0          
O        O      0.194800000000     0.310200000000     0.500000000000     0          
O        O      0.285800000000     0.381100000000     0.550900000000     0          
O        O      0.234900000000     0.403700000000     0.500000000000     0          
O        O      0.231100000000     0.429200000000     0.570800000000     0          
O        O      0.336800000000     0.403400000000     0.500000000000     0          
O        O      0.340500000000     0.429200000000     0.570800000000     0          
O        O      0.357100000000     0.357100000000     0.556000000000     0          
O        O      0.197800000000     0.286000000000     0.714000000000     0          
T        Si     0.186900000000     0.249700000000     0.598500000000     0          
T        Si     0.043900000000     0.392500000000     0.544500000000     0          
T        Si     0.098500000000     0.321900000000     0.544300000000     0          
T        Si     0.187400000000     0.321500000000     0.544200000000     0          
T        Si     0.241500000000     0.392800000000     0.544400000000     0          
T        Si     0.330000000000     0.392700000000     0.544400000000     0          
O        O      0.738600000000     0.193600000000     0.642700000000     0          
O        O      0.714600000000     0.197600000000     0.571300000000     0          
O        O      0.761900000000     0.142600000000     0.592000000000     0          
O        O      0.786300000000     0.213700000000     0.587800000000     0          
O        O      0.620000000000     0.000000000000     0.551200000000     0          
O        O      0.570500000000     0.053600000000     0.570500000000     0          
O        O      0.596800000000     0.050300000000     0.500000000000     0          
O        O      0.642200000000     0.072000000000     0.556200000000     0          
O        O      0.667000000000     0.143000000000     0.549900000000     0          
O        O      0.688900000000     0.090800000000     0.500000000000     0          
O        O      0.714300000000     0.088000000000     0.571100000000     0          
O        O      0.642800000000     0.214300000000     0.555800000000     0          
O        O      0.689800000000     0.194800000000     0.500000000000     0          
O        O      0.618900000000     0.285800000000     0.550900000000     0          
O        O      0.596300000000     0.234900000000     0.500000000000     0          
O        O      0.570800000000     0.231100000000     0.570800000000     0          
O        O      0.596600000000     0.336800000000     0.500000000000     0          
O        O      0.570800000000     0.340500000000     0.570800000000     0          
O        O      0.642900000000     0.357100000000     0.556000000000     0          
O        O      0.714000000000     0.197800000000     0.714000000000     0          
T        Si     0.750300000000     0.186900000000     0.598500000000     0          
T        Si     0.607500000000     0.043900000000     0.544500000000     0          
T        Si     0.678100000000     0.098500000000     0.544300000000     0          
T        Si     0.678500000000     0.187400000000     0.544200000000     0          
T        Si     0.607200000000     0.241500000000     0.544400000000     0          
T        Si     0.607300000000     0.330000000000     0.544400000000     0          
O        O      0.806400000000     0.261400000000     0.357300000000     0          
O        O      0.802400000000     0.285400000000     0.428700000000     0          
O        O      0.857400000000     0.238100000000     0.408000000000     0          
O        O      0.786300000000     0.213700000000     0.412200000000     0          
O        O      0.000000000000     0.380000000000     0.448800000000     0          
O        O      0.946400000000     0.429500000000     0.429500000000     0          
O        O      0.949700000000     0.403200000000     0.500000000000     0          
O        O      0.928000000000     0.357800000000     0.443800000000     0          
O        O      0.857000000000     0.333000000000     0.450100000000     0          
O        O      0.909200000000     0.311100000000     0.500000000000     0          
O        O      0.912000000000     0.285700000000     0.428900000000     0          
O        O      0.785700000000     0.357200000000     0.444200000000     0          
O        O      0.805200000000     0.310200000000     0.500000000000     0          
O        O      0.714200000000     0.381100000000     0.449100000000     0          
O        O      0.765100000000     0.403700000000     0.500000000000     0          
O        O      0.768900000000     0.429200000000     0.429200000000     0          
O        O      0.663200000000     0.403400000000     0.500000000000     0          
O        O      0.659500000000     0.429200000000     0.429200000000     0          
O        O      0.642900000000     0.357100000000     0.444000000000     0          
O        O      0.802200000000     0.286000000000     0.286000000000     0          
T        Si     0.813100000000     0.249700000000     0.401500000000     0          
T        Si     0.956100000000     0.392500000000     0.455500000000     0          
T        Si     0.901500000000     0.321900000000     0.455700000000     0          
T        Si     0.812600000000     0.321500000000     0.455800000000     0          
T        Si     0.758500000000     0.392800000000     0.455600000000     0          
T        Si     0.670000000000     0.392700000000     0.455600000000     0          
O        O      0.738600000000     0.806400000000     0.357300000000     0          
O        O      0.714600000000     0.802400000000     0.428700000000     0          
O        O      0.761900000000     0.857400000000     0.408000000000     0          
O        O      0.786300000000     0.786300000000     0.412200000000     0          
O        O      0.620000000000     0.000000000000     0.448800000000     0          
O        O      0.570500000000     0.946400000000     0.429500000000     0          
O        O      0.596800000000     0.949700000000     0.500000000000     0          
O        O      0.642200000000     0.928000000000     0.443800000000     0          
O        O      0.667000000000     0.857000000000     0.450100000000     0          
O        O      0.688900000000     0.909200000000     0.500000000000     0          
O        O      0.714300000000     0.912000000000     0.428900000000     0          
O        O      0.642800000000     0.785700000000     0.444200000000     0          
O        O      0.689800000000     0.805200000000     0.500000000000     0          
O        O      0.618900000000     0.714200000000     0.449100000000     0          
O        O      0.596300000000     0.765100000000     0.500000000000     0          
O        O      0.570800000000     0.768900000000     0.429200000000     0          
O        O      0.596600000000     0.663200000000     0.500000000000     0          
O        O      0.570800000000     0.659500000000     0.429200000000     0          
O        O      0.642900000000     0.642900000000     0.444000000000     0          
O        O      0.714000000000     0.802200000000     0.286000000000     0          
T        Si     0.750300000000     0.813100000000     0.401500000000     0          
T        Si     0.607500000000     0.956100000000     0.455500000000     0          
T        Si     0.678100000000     0.901500000000     0.455700000000     0          
T        Si     0.678500000000     0.812600000000     0.455800000000     0          
T        Si     0.607200000000     0.758500000000     0.455600000000     0          
T        Si     0.607300000000     0.670000000000     0.455600000000     0          
O        O      0.193600000000     0.738600000000     0.357300000000     0          
O        O      0.197600000000     0.714600000000     0.428700000000     0          
O        O      0.142600000000     0.761900000000     0.408000000000     0          
O        O      0.213700000000     0.786300000000     0.412200000000     0          
O        O      0.000000000000     0.620000000000     0.448800000000     0          
O        O      0.053600000000     0.570500000000     0.429500000000     0          
O        O      0.050300000000     0.596800000000     0.500000000000     0          
O        O      0.072000000000     0.642200000000     0.443800000000     0          
O        O      0.143000000000     0.667000000000     0.450100000000     0          
O        O      0.090800000000     0.688900000000     0.500000000000     0          
O        O      0.088000000000     0.714300000000     0.428900000000     0          
O        O      0.214300000000     0.642800000000     0.444200000000     0          
O        O      0.194800000000     0.689800000000     0.500000000000     0          
O        O      0.285800000000     0.618900000000     0.449100000000     0          
O        O      0.234900000000     0.596300000000     0.500000000000     0          
O        O      0.231100000000     0.570800000000     0.429200000000     0          
O        O      0.336800000000     0.596600000000     0.500000000000     0          
O        O      0.340500000000     0.570800000000     0.429200000000     0          
O        O      0.357100000000     0.642900000000     0.444000000000     0          
O        O      0.197800000000     0.714000000000     0.286000000000     0          
T        Si     0.186900000000     0.750300000000     0.401500000000     0          
T        Si     0.043900000000     0.607500000000     0.455500000000     0          
T        Si     0.098500000000     0.678100000000     0.455700000000     0          
T        Si     0.187400000000     0.678500000000     0.455800000000     0          
T        Si     0.241500000000     0.607200000000     0.455600000000     0          
T        Si     0.330000000000     0.607300000000     0.455600000000     0          
O        O      0.261400000000     0.193600000000     0.357300000000     0          
O        O      0.285400000000     0.197600000000     0.428700000000     0          
O        O      0.238100000000     0.142600000000     0.408000000000     0          
O        O      0.213700000000     0.213700000000     0.412200000000     0          
O        O      0.380000000000     0.000000000000     0.448800000000     0          
O        O      0.429500000000     0.053600000000     0.429500000000     0          
O        O      0.403200000000     0.050300000000     0.500000000000     0          
O        O      0.357800000000     0.072000000000     0.443800000000     0          
O        O      0.333000000000     0.143000000000     0.450100000000     0          
O        O      0.311100000000     0.090800000000     0.500000000000     0          
O        O      0.285700000000     0.088000000000     0.428900000000     0          
O        O      0.357200000000     0.214300000000     0.444200000000     0          
O        O      0.310200000000     0.194800000000     0.500000000000     0          
O        O      0.381100000000     0.285800000000     0.449100000000     0          
O        O      0.403700000000     0.234900000000     0.500000000000     0          
O        O      0.429200000000     0.231100000000     0.429200000000     0          
O        O      0.403400000000     0.336800000000     0.500000000000     0          
O        O      0.429200000000     0.340500000000     0.429200000000     0          
O        O      0.357100000000     0.357100000000     0.444000000000     0          
O        O      0.286000000000     0.197800000000     0.286000000000     0          
T        Si     0.249700000000     0.186900000000     0.401500000000     0          
T        Si     0.392500000000     0.043900000000     0.455500000000     0          
T        Si     0.321900000000     0.098500000000     0.455700000000     0          
T        Si     0.321500000000     0.187400000000     0.455800000000     0          
T        Si     0.392800000000     0.241500000000     0.455600000000     0          
T        Si     0.392700000000     0.330000000000     0.455600000000     0          
O        O      0.642700000000     0.806400000000     0.738600000000     0          
O        O      0.571300000000     0.802400000000     0.714600000000     0          
O        O      0.592000000000     0.857400000000     0.761900000000     0          
O        O      0.587800000000     0.786300000000     0.786300000000     0          
O        O      0.551200000000     0.000000000000     0.620000000000     0          
O        O      0.570500000000     0.946400000000     0.570500000000     0          
O        O      0.500000000000     0.949700000000     0.596800000000     0          
O        O      0.556200000000     0.928000000000     0.642200000000     0          
O        O      0.549900000000     0.857000000000     0.667000000000     0          
O        O      0.500000000000     0.909200000000     0.688900000000     0          
O        O      0.571100000000     0.912000000000     0.714300000000     0          
O        O      0.555800000000     0.785700000000     0.642800000000     0          
O        O      0.500000000000     0.805200000000     0.689800000000     0          
O        O      0.550900000000     0.714200000000     0.618900000000     0          
O        O      0.500000000000     0.765100000000     0.596300000000     0          
O        O      0.570800000000     0.768900000000     0.570800000000     0          
O        O      0.500000000000     0.663200000000     0.596600000000     0          
O        O      0.570800000000     0.659500000000     0.570800000000     0          
O        O      0.556000000000     0.642900000000     0.642900000000     0          
O        O      0.714000000000     0.802200000000     0.714000000000     0          
T        Si     0.598500000000     0.813100000000     0.750300000000     0          
T        Si     0.544500000000     0.956100000000     0.607500000000     0          
T        Si     0.544300000000     0.901500000000     0.678100000000     0          
T        Si     0.544200000000     0.812600000000     0.678500000000     0          
T        Si     0.544400000000     0.758500000000     0.607200000000     0          
T        Si     0.544400000000     0.670000000000     0.607300000000     0          
O        O      0.193600000000     0.642700000000     0.738600000000     0          
O        O      0.197600000000     0.571300000000     0.714600000000     0          
O        O      0.142600000000     0.592000000000     0.761900000000     0          
O        O      0.213700000000     0.587800000000     0.786300000000     0          
O        O      0.000000000000     0.551200000000     0.620000000000     0          
O        O      0.053600000000     0.570500000000     0.570500000000     0          
O        O      0.050300000000     0.500000000000     0.596800000000     0          
O        O      0.072000000000     0.556200000000     0.642200000000     0          
O        O      0.143000000000     0.549900000000     0.667000000000     0          
O        O      0.090800000000     0.500000000000     0.688900000000     0          
O        O      0.088000000000     0.571100000000     0.714300000000     0          
O        O      0.214300000000     0.555800000000     0.642800000000     0          
O        O      0.194800000000     0.500000000000     0.689800000000     0          
O        O      0.285800000000     0.550900000000     0.618900000000     0          
O        O      0.234900000000     0.500000000000     0.596300000000     0          
O        O      0.231100000000     0.570800000000     0.570800000000     0          
O        O      0.336800000000     0.500000000000     0.596600000000     0          
O        O      0.340500000000     0.570800000000     0.570800000000     0          
O        O      0.357100000000     0.556000000000     0.642900000000     0          
O        O      0.197800000000     0.714000000000     0.714000000000     0          
T        Si     0.186900000000     0.598500000000     0.750300000000     0          
T        Si     0.043900000000     0.544500000000     0.607500000000     0          
T        Si     0.098500000000     0.544300000000     0.678100000000     0          
T        Si     0.187400000000     0.544200000000     0.678500000000     0          
T        Si     0.241500000000     0.544400000000     0.607200000000     0          
T        Si     0.330000000000     0.544400000000     0.607300000000     0          
O        O      0.357300000000     0.193600000000     0.738600000000     0          
O        O      0.428700000000     0.197600000000     0.714600000000     0          
O        O      0.408000000000     0.142600000000     0.761900000000     0          
O        O      0.412200000000     0.213700000000     0.786300000000     0          
O        O      0.448800000000     0.000000000000     0.620000000000     0          
O        O      0.429500000000     0.053600000000     0.570500000000     0          
O        O      0.500000000000     0.050300000000     0.596800000000     0          
O        O      0.443800000000     0.072000000000     0.642200000000     0          
O        O      0.450100000000     0.143000000000     0.667000000000     0          
O        O      0.500000000000     0.090800000000     0.688900000000     0          
O        O      0.428900000000     0.088000000000     0.714300000000     0          
O        O      0.444200000000     0.214300000000     0.642800000000     0          
O        O      0.500000000000     0.194800000000     0.689800000000     0          
O        O      0.449100000000     0.285800000000     0.618900000000     0          
O        O      0.500000000000     0.234900000000     0.596300000000     0          
O        O      0.429200000000     0.231100000000     0.570800000000     0          
O        O      0.500000000000     0.336800000000     0.596600000000     0          
O        O      0.429200000000     0.340500000000     0.570800000000     0          
O        O      0.444000000000     0.357100000000     0.642900000000     0          
O        O      0.286000000000     0.197800000000     0.714000000000     0          
T        Si     0.401500000000     0.186900000000     0.750300000000     0          
T        Si     0.455500000000     0.043900000000     0.607500000000     0          
T        Si     0.455700000000     0.098500000000     0.678100000000     0          
T        Si     0.455800000000     0.187400000000     0.678500000000     0          
T        Si     0.455600000000     0.241500000000     0.607200000000     0          
T        Si     0.455600000000     0.330000000000     0.607300000000     0          
O        O      0.806400000000     0.357300000000     0.738600000000     0          
O        O      0.802400000000     0.428700000000     0.714600000000     0          
O        O      0.857400000000     0.408000000000     0.761900000000     0          
O        O      0.786300000000     0.412200000000     0.786300000000     0          
O        O      0.000000000000     0.448800000000     0.620000000000     0          
O        O      0.946400000000     0.429500000000     0.570500000000     0          
O        O      0.949700000000     0.500000000000     0.596800000000     0          
O        O      0.928000000000     0.443800000000     0.642200000000     0          
O        O      0.857000000000     0.450100000000     0.667000000000     0          
O        O      0.909200000000     0.500000000000     0.688900000000     0          
O        O      0.912000000000     0.428900000000     0.714300000000     0          
O        O      0.785700000000     0.444200000000     0.642800000000     0          
O        O      0.805200000000     0.500000000000     0.689800000000     0          
O        O      0.714200000000     0.449100000000     0.618900000000     0          
O        O      0.765100000000     0.500000000000     0.596300000000     0          
O        O      0.768900000000     0.429200000000     0.570800000000     0          
O        O      0.663200000000     0.500000000000     0.596600000000     0          
O        O      0.659500000000     0.429200000000     0.570800000000     0          
O        O      0.642900000000     0.444000000000     0.642900000000     0          
O        O      0.802200000000     0.286000000000     0.714000000000     0          
T        Si     0.813100000000     0.401500000000     0.750300000000     0          
T        Si     0.956100000000     0.455500000000     0.607500000000     0          
T        Si     0.901500000000     0.455700000000     0.678100000000     0          
T        Si     0.812600000000     0.455800000000     0.678500000000     0          
T        Si     0.758500000000     0.455600000000     0.607200000000     0          
T        Si     0.670000000000     0.455600000000     0.607300000000     0          
O        O      0.642700000000     0.193600000000     0.261400000000     0          
O        O      0.571300000000     0.197600000000     0.285400000000     0          
O        O      0.592000000000     0.142600000000     0.238100000000     0          
O        O      0.587800000000     0.213700000000     0.213700000000     0          
O        O      0.551200000000     0.000000000000     0.380000000000     0          
O        O      0.570500000000     0.053600000000     0.429500000000     0          
O        O      0.500000000000     0.050300000000     0.403200000000     0          
O        O      0.556200000000     0.072000000000     0.357800000000     0          
O        O      0.549900000000     0.143000000000     0.333000000000     0          
O        O      0.500000000000     0.090800000000     0.311100000000     0          
O        O      0.571100000000     0.088000000000     0.285700000000     0          
O        O      0.555800000000     0.214300000000     0.357200000000     0          
O        O      0.500000000000     0.194800000000     0.310200000000     0          
O        O      0.550900000000     0.285800000000     0.381100000000     0          
O        O      0.500000000000     0.234900000000     0.403700000000     0          
O        O      0.570800000000     0.231100000000     0.429200000000     0          
O        O      0.500000000000     0.336800000000     0.403400000000     0          
O        O      0.570800000000     0.340500000000     0.429200000000     0          
O        O      0.556000000000     0.357100000000     0.357100000000     0          
O        O      0.714000000000     0.197800000000     0.286000000000     0          
T        Si     0.598500000000     0.186900000000     0.249700000000     0          
T        Si     0.544500000000     0.043900000000     0.392500000000     0          
T        Si     0.544300000000     0.098500000000     0.321900000000     0          
T        Si     0.544200000000     0.187400000000     0.321500000000     0          
T        Si     0.544400000000     0.241500000000     0.392800000000     0          
T        Si     0.544400000000     0.330000000000     0.392700000000     0          
O        O      0.806400000000     0.642700000000     0.261400000000     0          
O        O      0.802400000000     0.571300000000     0.285400000000     0          
O        O      0.857400000000     0.592000000000     0.238100000000     0          
O        O      0.786300000000     0.587800000000     0.213700000000     0          
O        O      0.000000000000     0.551200000000     0.380000000000     0          
O        O      0.946400000000     0.570500000000     0.429500000000     0          
O        O      0.949700000000     0.500000000000     0.403200000000     0          
O        O      0.928000000000     0.556200000000     0.357800000000     0          
O        O      0.857000000000     0.549900000000     0.333000000000     0          
O        O      0.909200000000     0.500000000000     0.311100000000     0          
O        O      0.912000000000     0.571100000000     0.285700000000     0          
O        O      0.785700000000     0.555800000000     0.357200000000     0          
O        O      0.805200000000     0.500000000000     0.310200000000     0          
O        O      0.714200000000     0.550900000000     0.381100000000     0          
O        O      0.765100000000     0.500000000000     0.403700000000     0          
O        O      0.768900000000     0.570800000000     0.429200000000     0          
O        O      0.663200000000     0.500000000000     0.403400000000     0          
O        O      0.659500000000     0.570800000000     0.429200000000     0          
O        O      0.642900000000     0.556000000000     0.357100000000     0          
O        O      0.802200000000     0.714000000000     0.286000000000     0          
T        Si     0.813100000000     0.598500000000     0.249700000000     0          
T        Si     0.956100000000     0.544500000000     0.392500000000     0          
T        Si     0.901500000000     0.544300000000     0.321900000000     0          
T        Si     0.812600000000     0.544200000000     0.321500000000     0          
T        Si     0.758500000000     0.544400000000     0.392800000000     0          
T        Si     0.670000000000     0.544400000000     0.392700000000     0          
O        O      0.357300000000     0.806400000000     0.261400000000     0          
O        O      0.428700000000     0.802400000000     0.285400000000     0          
O        O      0.408000000000     0.857400000000     0.238100000000     0          
O        O      0.412200000000     0.786300000000     0.213700000000     0          
O        O      0.448800000000     0.000000000000     0.380000000000     0          
O        O      0.429500000000     0.946400000000     0.429500000000     0          
O        O      0.500000000000     0.949700000000     0.403200000000     0          
O        O      0.443800000000     0.928000000000     0.357800000000     0          
O        O      0.450100000000     0.857000000000     0.333000000000     0          
O        O      0.500000000000     0.909200000000     0.311100000000     0          
O        O      0.428900000000     0.912000000000     0.285700000000     0          
O        O      0.444200000000     0.785700000000     0.357200000000     0          
O        O      0.500000000000     0.805200000000     0.310200000000     0          
O        O      0.449100000000     0.714200000000     0.381100000000     0          
O        O      0.500000000000     0.765100000000     0.403700000000     0          
O        O      0.429200000000     0.768900000000     0.429200000000     0          
O        O      0.500000000000     0.663200000000     0.403400000000     0          
O        O      0.429200000000     0.659500000000     0.429200000000     0          
O        O      0.444000000000     0.642900000000     0.357100000000     0          
O        O      0.286000000000     0.802200000000     0.286000000000     0          
T        Si     0.401500000000     0.813100000000     0.249700000000     0          
T        Si     0.455500000000     0.956100000000     0.392500000000     0          
T        Si     0.455700000000     0.901500000000     0.321900000000     0          
T        Si     0.455800000000     0.812600000000     0.321500000000     0          
T        Si     0.455600000000     0.758500000000     0.392800000000     0          
T        Si     0.455600000000     0.670000000000     0.392700000000     0          
O        O      0.193600000000     0.357300000000     0.261400000000     0          
O        O      0.197600000000     0.428700000000     0.285400000000     0          
O        O      0.142600000000     0.408000000000     0.238100000000     0          
O        O      0.213700000000     0.412200000000     0.213700000000     0          
O        O      0.000000000000     0.448800000000     0.380000000000     0          
O        O      0.053600000000     0.429500000000     0.429500000000     0          
O        O      0.050300000000     0.500000000000     0.403200000000     0          
O        O      0.072000000000     0.443800000000     0.357800000000     0          
O        O      0.143000000000     0.450100000000     0.333000000000     0          
O        O      0.090800000000     0.500000000000     0.311100000000     0          
O        O      0.088000000000     0.428900000000     0.285700000000     0          
O        O      0.214300000000     0.444200000000     0.357200000000     0          
O        O      0.194800000000     0.500000000000     0.310200000000     0          
O        O      0.285800000000     0.449100000000     0.381100000000     0          
O        O      0.234900000000     0.500000000000     0.403700000000     0          
O        O      0.231100000000     0.429200000000     0.429200000000     0          
O        O      0.336800000000     0.500000000000     0.403400000000     0          
O        O      0.340500000000     0.429200000000     0.429200000000     0          
O        O      0.357100000000     0.444000000000     0.357100000000     0          
O        O      0.197800000000     0.286000000000     0.286000000000     0          
T        Si     0.186900000000     0.401500000000     0.249700000000     0          
T        Si     0.043900000000     0.455500000000     0.392500000000     0          
T        Si     0.098500000000     0.455700000000     0.321900000000     0          
T        Si     0.187400000000     0.455800000000     0.321500000000     0          
T        Si     0.241500000000     0.455600000000     0.392800000000     0          
T        Si     0.330000000000     0.455600000000     0.392700000000     0          
O        O      0.738600000000     0.642700000000     0.806400000000     0          
O        O      0.714600000000     0.571300000000     0.802400000000     0          
O        O      0.761900000000     0.592000000000     0.857400000000     0          
O        O      0.786300000000     0.587800000000     0.786300000000     0          
O        O      0.620000000000     0.551200000000     0.000000000000     0          
O        O      0.570500000000     0.570500000000     0.946400000000     0          
O        O      0.596800000000     0.500000000000     0.949700000000     0          
O        O      0.642200000000     0.556200000000     0.928000000000     0          
O        O      0.667000000000     0.549900000000     0.857000000000     0          
O        O      0.688900000000     0.500000000000     0.909200000000     0          
O        O      0.714300000000     0.571100000000     0.912000000000     0          
O        O      0.642800000000     0.555800000000     0.785700000000     0          
O        O      0.689800000000     0.500000000000     0.805200000000     0          
O        O      0.618900000000     0.550900000000     0.714200000000     0          
O        O      0.596300000000     0.500000000000     0.765100000000     0          
O        O      0.570800000000     0.570800000000     0.768900000000     0          
O        O      0.596600000000     0.500000000000     0.663200000000     0          
O        O      0.570800000000     0.570800000000     0.659500000000     0          
O        O      0.642900000000     0.556000000000     0.642900000000     0          
O        O      0.714000000000     0.714000000000     0.802200000000     0          
T        Si     0.750300000000     0.598500000000     0.813100000000     0          
T        Si     0.607500000000     0.544500000000     0.956100000000     0          
T        Si     0.678100000000     0.544300000000     0.901500000000     0          
T        Si     0.678500000000     0.544200000000     0.812600000000     0          
T        Si     0.607200000000     0.544400000000     0.758500000000     0          
T        Si     0.607300000000     0.544400000000     0.670000000000     0          
O        O      0.738600000000     0.357300000000     0.193600000000     0          
O        O      0.714600000000     0.428700000000     0.197600000000     0          
O        O      0.761900000000     0.408000000000     0.142600000000     0          
O        O      0.786300000000     0.412200000000     0.213700000000     0          
O        O      0.620000000000     0.448800000000     0.000000000000     0          
O        O      0.570500000000     0.429500000000     0.053600000000     0          
O        O      0.596800000000     0.500000000000     0.050300000000     0          
O        O      0.642200000000     0.443800000000     0.072000000000     0          
O        O      0.667000000000     0.450100000000     0.143000000000     0          
O        O      0.688900000000     0.500000000000     0.090800000000     0          
O        O      0.714300000000     0.428900000000     0.088000000000     0          
O        O      0.642800000000     0.444200000000     0.214300000000     0          
O        O      0.689800000000     0.500000000000     0.194800000000     0          
O        O      0.618900000000     0.449100000000     0.285800000000     0          
O        O      0.596300000000     0.500000000000     0.234900000000     0          
O        O      0.570800000000     0.429200000000     0.231100000000     0          
O        O      0.596600000000     0.500000000000     0.336800000000     0          
O        O      0.570800000000     0.429200000000     0.340500000000     0          
O        O      0.642900000000     0.444000000000     0.357100000000     0          
O        O      0.714000000000     0.286000000000     0.197800000000     0          
T        Si     0.750300000000     0.401500000000     0.186900000000     0          
T        Si     0.607500000000     0.455500000000     0.043900000000     0          
T        Si     0.678100000000     0.455700000000     0.098500000000     0          
T        Si     0.678500000000     0.455800000000     0.187400000000     0          
T        Si     0.607200000000     0.455600000000     0.241500000000     0          
T        Si     0.607300000000     0.455600000000     0.330000000000     0          
O        O      0.642700000000     0.738600000000     0.193600000000     0          
O        O      0.571300000000     0.714600000000     0.197600000000     0          
O        O      0.592000000000     0.761900000000     0.142600000000     0          
O        O      0.587800000000     0.786300000000     0.213700000000     0          
O        O      0.551200000000     0.620000000000     0.000000000000     0          
O        O      0.570500000000     0.570500000000     0.053600000000     0          
O        O      0.500000000000     0.596800000000     0.050300000000     0          
O        O      0.556200000000     0.642200000000     0.072000000000     0          
O        O      0.549900000000     0.667000000000     0.143000000000     0          
O        O      0.500000000000     0.688900000000     0.090800000000     0          
O        O      0.571100000000     0.714300000000     0.088000000000     0          
O        O      0.555800000000     0.642800000000     0.214300000000     0          
O        O      0.500000000000     0.689800000000     0.194800000000     0          
O        O      0.550900000000     0.618900000000     0.285800000000     0          
O        O      0.500000000000     0.596300000000     0.234900000000     0          
O        O      0.570800000000     0.570800000000     0.231100000000     0          
O        O      0.500000000000     0.596600000000     0.336800000000     0          
O        O      0.570800000000     0.570800000000     0.340500000000     0          
O        O      0.556000000000     0.642900000000     0.357100000000     0          
O        O      0.714000000000     0.714000000000     0.197800000000     0          
T        Si     0.598500000000     0.750300000000     0.186900000000     0          
T        Si     0.544500000000     0.607500000000     0.043900000000     0          
T        Si     0.544300000000     0.678100000000     0.098500000000     0          
T        Si     0.544200000000     0.678500000000     0.187400000000     0          
T        Si     0.544400000000     0.607200000000     0.241500000000     0          
T        Si     0.544400000000     0.607300000000     0.330000000000     0          
O        O      0.261400000000     0.642700000000     0.193600000000     0          
O        O      0.285400000000     0.571300000000     0.197600000000     0          
O        O      0.238100000000     0.592000000000     0.142600000000     0          
O        O      0.213700000000     0.587800000000     0.213700000000     0          
O        O      0.380000000000     0.551200000000     0.000000000000     0          
O        O      0.429500000000     0.570500000000     0.053600000000     0          
O        O      0.403200000000     0.500000000000     0.050300000000     0          
O        O      0.357800000000     0.556200000000     0.072000000000     0          
O        O      0.333000000000     0.549900000000     0.143000000000     0          
O        O      0.311100000000     0.500000000000     0.090800000000     0          
O        O      0.285700000000     0.571100000000     0.088000000000     0          
O        O      0.357200000000     0.555800000000     0.214300000000     0          
O        O      0.310200000000     0.500000000000     0.194800000000     0          
O        O      0.381100000000     0.550900000000     0.285800000000     0          
O        O      0.403700000000     0.500000000000     0.234900000000     0          
O        O      0.429200000000     0.570800000000     0.231100000000     0          
O        O      0.403400000000     0.500000000000     0.336800000000     0          
O        O      0.429200000000     0.570800000000     0.340500000000     0          
O        O      0.357100000000     0.556000000000     0.357100000000     0          
O        O      0.286000000000     0.714000000000     0.197800000000     0          
T        Si     0.249700000000     0.598500000000     0.186900000000     0          
T        Si     0.392500000000     0.544500000000     0.043900000000     0          
T        Si     0.321900000000     0.544300000000     0.098500000000     0          
T        Si     0.321500000000     0.544200000000     0.187400000000     0          
T        Si     0.392800000000     0.544400000000     0.241500000000     0          
T        Si     0.392700000000     0.544400000000     0.330000000000     0          
O        O      0.357300000000     0.261400000000     0.193600000000     0          
O        O      0.428700000000     0.285400000000     0.197600000000     0          
O        O      0.408000000000     0.238100000000     0.142600000000     0          
O        O      0.412200000000     0.213700000000     0.213700000000     0          
O        O      0.448800000000     0.380000000000     0.000000000000     0          
O        O      0.429500000000     0.429500000000     0.053600000000     0          
O        O      0.500000000000     0.403200000000     0.050300000000     0          
O        O      0.443800000000     0.357800000000     0.072000000000     0          
O        O      0.450100000000     0.333000000000     0.143000000000     0          
O        O      0.500000000000     0.311100000000     0.090800000000     0          
O        O      0.428900000000     0.285700000000     0.088000000000     0          
O        O      0.444200000000     0.357200000000     0.214300000000     0          
O        O      0.500000000000     0.310200000000     0.194800000000     0          
O        O      0.449100000000     0.381100000000     0.285800000000     0          
O        O      0.500000000000     0.403700000000     0.234900000000     0          
O        O      0.429200000000     0.429200000000     0.231100000000     0          
O        O      0.500000000000     0.403400000000     0.336800000000     0          
O        O      0.429200000000     0.429200000000     0.340500000000     0          
O        O      0.444000000000     0.357100000000     0.357100000000     0          
O        O      0.286000000000     0.286000000000     0.197800000000     0          
T        Si     0.401500000000     0.249700000000     0.186900000000     0          
T        Si     0.455500000000     0.392500000000     0.043900000000     0          
T        Si     0.455700000000     0.321900000000     0.098500000000     0          
T        Si     0.455800000000     0.321500000000     0.187400000000     0          
T        Si     0.455600000000     0.392800000000     0.241500000000     0          
T        Si     0.455600000000     0.392700000000     0.330000000000     0          
O        O      0.261400000000     0.357300000000     0.806400000000     0          
O        O      0.285400000000     0.428700000000     0.802400000000     0          
O        O      0.238100000000     0.408000000000     0.857400000000     0          
O        O      0.213700000000     0.412200000000     0.786300000000     0          
O        O      0.380000000000     0.448800000000     0.000000000000     0          
O        O      0.429500000000     0.429500000000     0.946400000000     0          
O        O      0.403200000000     0.500000000000     0.949700000000     0          
O        O      0.357800000000     0.443800000000     0.928000000000     0          
O        O      0.333000000000     0.450100000000     0.857000000000     0          
O        O      0.311100000000     0.500000000000     0.909200000000     0          
O        O      0.285700000000     0.428900000000     0.912000000000     0          
O        O      0.357200000000     0.444200000000     0.785700000000     0          
O        O      0.310200000000     0.500000000000     0.805200000000     0          
O        O      0.381100000000     0.449100000000     0.714200000000     0          
O        O      0.403700000000     0.500000000000     0.765100000000     0          
O        O      0.429200000000     0.429200000000     0.768900000000     0          
O        O      0.403400000000     0.500000000000     0.663200000000     0          
O        O      0.429200000000     0.429200000000     0.659500000000     0          
O        O      0.357100000000     0.444000000000     0.642900000000     0          
O        O      0.286000000000     0.286000000000     0.802200000000     0          
T        Si     0.249700000000     0.401500000000     0.813100000000     0          
T        Si     0.392500000000     0.455500000000     0.956100000000     0          
T        Si     0.321900000000     0.455700000000     0.901500000000     0          
T        Si     0.321500000000     0.455800000000     0.812600000000     0          
T        Si     0.392800000000     0.455600000000     0.758500000000     0          
T        Si     0.392700000000     0.455600000000     0.670000000000     0          
O        O      0.642700000000     0.261400000000     0.806400000000     0          
O        O      0.571300000000     0.285400000000     0.802400000000     0          
O        O      0.592000000000     0.238100000000     0.857400000000     0          
O        O      0.587800000000     0.213700000000     0.786300000000     0          
O        O      0.551200000000     0.380000000000     0.000000000000     0          
O        O      0.570500000000     0.429500000000     0.946400000000     0          
O        O      0.500000000000     0.403200000000     0.949700000000     0          
O        O      0.556200000000     0.357800000000     0.928000000000     0          
O        O      0.549900000000     0.333000000000     0.857000000000     0          
O        O      0.500000000000     0.311100000000     0.909200000000     0          
O        O      0.571100000000     0.285700000000     0.912000000000     0          
O        O      0.555800000000     0.357200000000     0.785700000000     0          
O        O      0.500000000000     0.310200000000     0.805200000000     0          
O        O      0.550900000000     0.381100000000     0.714200000000     0          
O        O      0.500000000000     0.403700000000     0.765100000000     0          
O        O      0.570800000000     0.429200000000     0.768900000000     0          
O        O      0.500000000000     0.403400000000     0.663200000000     0          
O        O      0.570800000000     0.429200000000     0.659500000000     0          
O        O      0.556000000000     0.357100000000     0.642900000000     0          
O        O      0.714000000000     0.286000000000     0.802200000000     0          
T        Si     0.598500000000     0.249700000000     0.813100000000     0          
T        Si     0.544500000000     0.392500000000     0.956100000000     0          
T        Si     0.544300000000     0.321900000000     0.901500000000     0          
T        Si     0.544200000000     0.321500000000     0.812600000000     0          
T        Si     0.544400000000     0.392800000000     0.758500000000     0          
T        Si     0.544400000000     0.392700000000     0.670000000000     0          
O        O      0.357300000000     0.738600000000     0.806400000000     0          
O        O      0.428700000000     0.714600000000     0.802400000000     0          
O        O      0.408000000000     0.761900000000     0.857400000000     0          
O        O      0.412200000000     0.786300000000     0.786300000000     0          
O        O      0.448800000000     0.620000000000     0.000000000000     0          
O        O      0.429500000000     0.570500000000     0.946400000000     0          
O        O      0.500000000000     0.596800000000     0.949700000000     0          
O        O      0.443800000000     0.642200000000     0.928000000000     0          
O        O      0.450100000000     0.667000000000     0.857000000000     0          
O        O      0.500000000000     0.688900000000     0.909200000000     0          
O        O      0.428900000000     0.714300000000     0.912000000000     0          
O        O      0.444200000000     0.642800000000     0.785700000000     0          
O        O      0.500000000000     0.689800000000     0.805200000000     0          
O        O      0.449100000000     0.618900000000     0.714200000000     0          
O        O      0.500000000000     0.596300000000     0.765100000000     0          
O        O      0.429200000000     0.570800000000     0.768900000000     0          
O        O      0.500000000000     0.596600000000     0.663200000000     0          
O        O      0.429200000000     0.570800000000     0.659500000000     0          
O        O      0.444000000000     0.642900000000     0.642900000000     0          
O        O      0.286000000000     0.714000000000     0.802200000000     0          
T        Si     0.401500000000     0.750300000000     0.813100000000     0          
T        Si     0.455500000000     0.607500000000     0.956100000000     0          
T        Si     0.455700000000     0.678100000000     0.901500000000     0          
T        Si     0.455800000000     0.678500000000     0.812600000000     0          
T        Si     0.455600000000     0.607200000000     0.758500000000     0          
T        Si     0.455600000000     0.607300000000     0.670000000000     0          
O        O      0.193600000000     0.261400000000     0.357300000000     0          
O        O      0.197600000000     0.285400000000     0.428700000000     0          
O        O      0.142600000000     0.238100000000     0.408000000000     0          
O        O      0.072000000000     0.357800000000     0.443800000000     0          
O        O      0.143000000000     0.333000000000     0.450100000000     0          
O        O      0.088000000000     0.285700000000     0.428900000000     0          
O        O      0.214300000000     0.357200000000     0.444200000000     0          
O        O      0.285800000000     0.381100000000     0.449100000000     0          
T        Si     0.186900000000     0.249700000000     0.401500000000     0          
T        Si     0.043900000000     0.392500000000     0.455500000000     0          
T        Si     0.098500000000     0.321900000000     0.455700000000     0          
T        Si     0.187400000000     0.321500000000     0.455800000000     0          
T        Si     0.241500000000     0.392800000000     0.455600000000     0          
T        Si     0.330000000000     0.392700000000     0.455600000000     0          
O        O      0.738600000000     0.193600000000     0.357300000000     0          
O        O      0.714600000000     0.197600000000     0.428700000000     0          
O        O      0.761900000000     0.142600000000     0.408000000000     0          
O        O      0.642200000000     0.072000000000     0.443800000000     0          
O        O      0.667000000000     0.143000000000     0.450100000000     0          
O        O      0.714300000000     0.088000000000     0.428900000000     0          
O        O      0.642800000000     0.214300000000     0.444200000000     0          
O        O      0.618900000000     0.285800000000     0.449100000000     0          
T        Si     0.750300000000     0.186900000000     0.401500000000     0          
T        Si     0.607500000000     0.043900000000     0.455500000000     0          
T        Si     0.678100000000     0.098500000000     0.455700000000     0          
T        Si     0.678500000000     0.187400000000     0.455800000000     0          
T        Si     0.607200000000     0.241500000000     0.455600000000     0          
T        Si     0.607300000000     0.330000000000     0.455600000000     0          
O        O      0.806400000000     0.738600000000     0.357300000000     0          
O        O      0.802400000000     0.714600000000     0.428700000000     0          
O        O      0.857400000000     0.761900000000     0.408000000000     0          
O        O      0.928000000000     0.642200000000     0.443800000000     0          
O        O      0.857000000000     0.667000000000     0.450100000000     0          
O        O      0.912000000000     0.714300000000     0.428900000000     0          
O        O      0.785700000000     0.642800000000     0.444200000000     0          
O        O      0.714200000000     0.618900000000     0.449100000000     0          
T        Si     0.813100000000     0.750300000000     0.401500000000     0          
T        Si     0.956100000000     0.607500000000     0.455500000000     0          
T        Si     0.901500000000     0.678100000000     0.455700000000     0          
T        Si     0.812600000000     0.678500000000     0.455800000000     0          
T        Si     0.758500000000     0.607200000000     0.455600000000     0          
T        Si     0.670000000000     0.607300000000     0.455600000000     0          
O        O      0.261400000000     0.806400000000     0.357300000000     0          
O        O      0.285400000000     0.802400000000     0.428700000000     0          
O        O      0.238100000000     0.857400000000     0.408000000000     0          
O        O      0.357800000000     0.928000000000     0.443800000000     0          
O        O      0.333000000000     0.857000000000     0.450100000000     0          
O        O      0.285700000000     0.912000000000     0.428900000000     0          
O        O      0.357200000000     0.785700000000     0.444200000000     0          
O        O      0.381100000000     0.714200000000     0.449100000000     0          
T        Si     0.249700000000     0.813100000000     0.401500000000     0          
T        Si     0.392500000000     0.956100000000     0.455500000000     0          
T        Si     0.321900000000     0.901500000000     0.455700000000     0          
T        Si     0.321500000000     0.812600000000     0.455800000000     0          
T        Si     0.392800000000     0.758500000000     0.455600000000     0          
T        Si     0.392700000000     0.670000000000     0.455600000000     0          
O        O      0.193600000000     0.738600000000     0.642700000000     0          
O        O      0.197600000000     0.714600000000     0.571300000000     0          
O        O      0.142600000000     0.761900000000     0.592000000000     0          
O        O      0.072000000000     0.642200000000     0.556200000000     0          
O        O      0.143000000000     0.667000000000     0.549900000000     0          
O        O      0.088000000000     0.714300000000     0.571100000000     0          
O        O      0.214300000000     0.642800000000     0.555800000000     0          
O        O      0.285800000000     0.618900000000     0.550900000000     0          
T        Si     0.186900000000     0.750300000000     0.598500000000     0          
T        Si     0.043900000000     0.607500000000     0.544500000000     0          
T        Si     0.098500000000     0.678100000000     0.544300000000     0          
T        Si     0.187400000000     0.678500000000     0.544200000000     0          
T        Si     0.241500000000     0.607200000000     0.544400000000     0          
T        Si     0.330000000000     0.607300000000     0.544400000000     0          
O        O      0.261400000000     0.193600000000     0.642700000000     0          
O        O      0.285400000000     0.197600000000     0.571300000000     0          
O        O      0.238100000000     0.142600000000     0.592000000000     0          
O        O      0.357800000000     0.072000000000     0.556200000000     0          
O        O      0.333000000000     0.143000000000     0.549900000000     0          
O        O      0.285700000000     0.088000000000     0.571100000000     0          
O        O      0.357200000000     0.214300000000     0.555800000000     0          
O        O      0.381100000000     0.285800000000     0.550900000000     0          
T        Si     0.249700000000     0.186900000000     0.598500000000     0          
T        Si     0.392500000000     0.043900000000     0.544500000000     0          
T        Si     0.321900000000     0.098500000000     0.544300000000     0          
T        Si     0.321500000000     0.187400000000     0.544200000000     0          
T        Si     0.392800000000     0.241500000000     0.544400000000     0          
T        Si     0.392700000000     0.330000000000     0.544400000000     0          
O        O      0.806400000000     0.261400000000     0.642700000000     0          
O        O      0.802400000000     0.285400000000     0.571300000000     0          
O        O      0.857400000000     0.238100000000     0.592000000000     0          
O        O      0.928000000000     0.357800000000     0.556200000000     0          
O        O      0.857000000000     0.333000000000     0.549900000000     0          
O        O      0.912000000000     0.285700000000     0.571100000000     0          
O        O      0.785700000000     0.357200000000     0.555800000000     0          
O        O      0.714200000000     0.381100000000     0.550900000000     0          
T        Si     0.813100000000     0.249700000000     0.598500000000     0          
T        Si     0.956100000000     0.392500000000     0.544500000000     0          
T        Si     0.901500000000     0.321900000000     0.544300000000     0          
T        Si     0.812600000000     0.321500000000     0.544200000000     0          
T        Si     0.758500000000     0.392800000000     0.544400000000     0          
T        Si     0.670000000000     0.392700000000     0.544400000000     0          
O        O      0.738600000000     0.806400000000     0.642700000000     0          
O        O      0.714600000000     0.802400000000     0.571300000000     0          
O        O      0.761900000000     0.857400000000     0.592000000000     0          
O        O      0.642200000000     0.928000000000     0.556200000000     0          
O        O      0.667000000000     0.857000000000     0.549900000000     0          
O        O      0.714300000000     0.912000000000     0.571100000000     0          
O        O      0.642800000000     0.785700000000     0.555800000000     0          
O        O      0.618900000000     0.714200000000     0.550900000000     0          
T        Si     0.750300000000     0.813100000000     0.598500000000     0          
T        Si     0.607500000000     0.956100000000     0.544500000000     0          
T        Si     0.678100000000     0.901500000000     0.544300000000     0          
T        Si     0.678500000000     0.812600000000     0.544200000000     0          
T        Si     0.607200000000     0.758500000000     0.544400000000     0          
T        Si     0.607300000000     0.670000000000     0.544400000000     0          
O        O      0.357300000000     0.193600000000     0.261400000000     0          
O        O      0.428700000000     0.197600000000     0.285400000000     0          
O        O      0.408000000000     0.142600000000     0.238100000000     0          
O        O      0.443800000000     0.072000000000     0.357800000000     0          
O        O      0.450100000000     0.143000000000     0.333000000000     0          
O        O      0.428900000000     0.088000000000     0.285700000000     0          
O        O      0.444200000000     0.214300000000     0.357200000000     0          
O        O      0.449100000000     0.285800000000     0.381100000000     0          
T        Si     0.401500000000     0.186900000000     0.249700000000     0          
T        Si     0.455500000000     0.043900000000     0.392500000000     0          
T        Si     0.455700000000     0.098500000000     0.321900000000     0          
T        Si     0.455800000000     0.187400000000     0.321500000000     0          
T        Si     0.455600000000     0.241500000000     0.392800000000     0          
T        Si     0.455600000000     0.330000000000     0.392700000000     0          
O        O      0.806400000000     0.357300000000     0.261400000000     0          
O        O      0.802400000000     0.428700000000     0.285400000000     0          
O        O      0.857400000000     0.408000000000     0.238100000000     0          
O        O      0.928000000000     0.443800000000     0.357800000000     0          
O        O      0.857000000000     0.450100000000     0.333000000000     0          
O        O      0.912000000000     0.428900000000     0.285700000000     0          
O        O      0.785700000000     0.444200000000     0.357200000000     0          
O        O      0.714200000000     0.449100000000     0.381100000000     0          
T        Si     0.813100000000     0.401500000000     0.249700000000     0          
T        Si     0.956100000000     0.455500000000     0.392500000000     0          
T        Si     0.901500000000     0.455700000000     0.321900000000     0          
T        Si     0.812600000000     0.455800000000     0.321500000000     0          
T        Si     0.758500000000     0.455600000000     0.392800000000     0          
T        Si     0.670000000000     0.455600000000     0.392700000000     0          
O        O      0.642700000000     0.806400000000     0.261400000000     0          
O        O      0.571300000000     0.802400000000     0.285400000000     0          
O        O      0.592000000000     0.857400000000     0.238100000000     0          
O        O      0.556200000000     0.928000000000     0.357800000000     0          
O        O      0.549900000000     0.857000000000     0.333000000000     0          
O        O      0.571100000000     0.912000000000     0.285700000000     0          
O        O      0.555800000000     0.785700000000     0.357200000000     0          
O        O      0.550900000000     0.714200000000     0.381100000000     0          
T        Si     0.598500000000     0.813100000000     0.249700000000     0          
T        Si     0.544500000000     0.956100000000     0.392500000000     0          
T        Si     0.544300000000     0.901500000000     0.321900000000     0          
T        Si     0.544200000000     0.812600000000     0.321500000000     0          
T        Si     0.544400000000     0.758500000000     0.392800000000     0          
T        Si     0.544400000000     0.670000000000     0.392700000000     0          
O        O      0.193600000000     0.642700000000     0.261400000000     0          
O        O      0.197600000000     0.571300000000     0.285400000000     0          
O        O      0.142600000000     0.592000000000     0.238100000000     0          
O        O      0.072000000000     0.556200000000     0.357800000000     0          
O        O      0.143000000000     0.549900000000     0.333000000000     0          
O        O      0.088000000000     0.571100000000     0.285700000000     0          
O        O      0.214300000000     0.555800000000     0.357200000000     0          
O        O      0.285800000000     0.550900000000     0.381100000000     0          
T        Si     0.186900000000     0.598500000000     0.249700000000     0          
T        Si     0.043900000000     0.544500000000     0.392500000000     0          
T        Si     0.098500000000     0.544300000000     0.321900000000     0          
T        Si     0.187400000000     0.544200000000     0.321500000000     0          
T        Si     0.241500000000     0.544400000000     0.392800000000     0          
T        Si     0.330000000000     0.544400000000     0.392700000000     0          
O        O      0.357300000000     0.806400000000     0.738600000000     0          
O        O      0.428700000000     0.802400000000     0.714600000000     0          
O        O      0.408000000000     0.857400000000     0.761900000000     0          
O        O      0.443800000000     0.928000000000     0.642200000000     0          
O        O      0.450100000000     0.857000000000     0.667000000000     0          
O        O      0.428900000000     0.912000000000     0.714300000000     0          
O        O      0.444200000000     0.785700000000     0.642800000000     0          
O        O      0.449100000000     0.714200000000     0.618900000000     0          
T        Si     0.401500000000     0.813100000000     0.750300000000     0          
T        Si     0.455500000000     0.956100000000     0.607500000000     0          
T        Si     0.455700000000     0.901500000000     0.678100000000     0          
T        Si     0.455800000000     0.812600000000     0.678500000000     0          
T        Si     0.455600000000     0.758500000000     0.607200000000     0          
T        Si     0.455600000000     0.670000000000     0.607300000000     0          
O        O      0.193600000000     0.357300000000     0.738600000000     0          
O        O      0.197600000000     0.428700000000     0.714600000000     0          
O        O      0.142600000000     0.408000000000     0.761900000000     0          
O        O      0.072000000000     0.443800000000     0.642200000000     0          
O        O      0.143000000000     0.450100000000     0.667000000000     0          
O        O      0.088000000000     0.428900000000     0.714300000000     0          
O        O      0.214300000000     0.444200000000     0.642800000000     0          
O        O      0.285800000000     0.449100000000     0.618900000000     0          
T        Si     0.186900000000     0.401500000000     0.750300000000     0          
T        Si     0.043900000000     0.455500000000     0.607500000000     0          
T        Si     0.098500000000     0.455700000000     0.678100000000     0          
T        Si     0.187400000000     0.455800000000     0.678500000000     0          
T        Si     0.241500000000     0.455600000000     0.607200000000     0          
T        Si     0.330000000000     0.455600000000     0.607300000000     0          
O        O      0.642700000000     0.193600000000     0.738600000000     0          
O        O      0.571300000000     0.197600000000     0.714600000000     0          
O        O      0.592000000000     0.142600000000     0.761900000000     0          
O        O      0.556200000000     0.072000000000     0.642200000000     0          
O        O      0.549900000000     0.143000000000     0.667000000000     0          
O        O      0.571100000000     0.088000000000     0.714300000000     0          
O        O      0.555800000000     0.214300000000     0.642800000000     0          
O        O      0.550900000000     0.285800000000     0.618900000000     0          
T        Si     0.598500000000     0.186900000000     0.750300000000     0          
T        Si     0.544500000000     0.043900000000     0.607500000000     0          
T        Si     0.544300000000     0.098500000000     0.678100000000     0          
T        Si     0.544200000000     0.187400000000     0.678500000000     0          
T        Si     0.544400000000     0.241500000000     0.607200000000     0          
T        Si     0.544400000000     0.330000000000     0.607300000000     0          
O        O      0.806400000000     0.642700000000     0.738600000000     0          
O        O      0.802400000000     0.571300000000     0.714600000000     0          
O        O      0.857400000000     0.592000000000     0.761900000000     0          
O        O      0.928000000000     0.556200000000     0.642200000000     0          
O        O      0.857000000000     0.549900000000     0.667000000000     0          
O        O      0.912000000000     0.571100000000     0.714300000000     0          
O        O      0.785700000000     0.555800000000     0.642800000000     0          
O        O      0.714200000000     0.550900000000     0.618900000000     0          
T        Si     0.813100000000     0.598500000000     0.750300000000     0          
T        Si     0.956100000000     0.544500000000     0.607500000000     0          
T        Si     0.901500000000     0.544300000000     0.678100000000     0          
T        Si     0.812600000000     0.544200000000     0.678500000000     0          
T        Si     0.758500000000     0.544400000000     0.607200000000     0          
T        Si     0.670000000000     0.544400000000     0.607300000000     0          
O        O      0.261400000000     0.357300000000     0.193600000000     0          
O        O      0.285400000000     0.428700000000     0.197600000000     0          
O        O      0.238100000000     0.408000000000     0.142600000000     0          
O        O      0.357800000000     0.443800000000     0.072000000000     0          
O        O      0.333000000000     0.450100000000     0.143000000000     0          
O        O      0.285700000000     0.428900000000     0.088000000000     0          
O        O      0.357200000000     0.444200000000     0.214300000000     0          
O        O      0.381100000000     0.449100000000     0.285800000000     0          
T        Si     0.249700000000     0.401500000000     0.186900000000     0          
T        Si     0.392500000000     0.455500000000     0.043900000000     0          
T        Si     0.321900000000     0.455700000000     0.098500000000     0          
T        Si     0.321500000000     0.455800000000     0.187400000000     0          
T        Si     0.392800000000     0.455600000000     0.241500000000     0          
T        Si     0.392700000000     0.455600000000     0.330000000000     0          
O        O      0.261400000000     0.642700000000     0.806400000000     0          
O        O      0.285400000000     0.571300000000     0.802400000000     0          
O        O      0.238100000000     0.592000000000     0.857400000000     0          
O        O      0.357800000000     0.556200000000     0.928000000000     0          
O        O      0.333000000000     0.549900000000     0.857000000000     0          
O        O      0.285700000000     0.571100000000     0.912000000000     0          
O        O      0.357200000000     0.555800000000     0.785700000000     0          
O        O      0.381100000000     0.550900000000     0.714200000000     0          
T        Si     0.249700000000     0.598500000000     0.813100000000     0          
T        Si     0.392500000000     0.544500000000     0.956100000000     0          
T        Si     0.321900000000     0.544300000000     0.901500000000     0          
T        Si     0.321500000000     0.544200000000     0.812600000000     0          
T        Si     0.392800000000     0.544400000000     0.758500000000     0          
T        Si     0.392700000000     0.544400000000     0.670000000000     0          
O        O      0.357300000000     0.261400000000     0.806400000000     0          
O        O      0.428700000000     0.285400000000     0.802400000000     0          
O        O      0.408000000000     0.238100000000     0.857400000000     0          
O        O      0.443800000000     0.357800000000     0.928000000000     0          
O        O      0.450100000000     0.333000000000     0.857000000000     0          
O        O      0.428900000000     0.285700000000     0.912000000000     0          
O        O      0.444200000000     0.357200000000     0.785700000000     0          
O        O      0.449100000000     0.381100000000     0.714200000000     0          
T        Si     0.401500000000     0.249700000000     0.813100000000     0          
T        Si     0.455500000000     0.392500000000     0.956100000000     0          
T        Si     0.455700000000     0.321900000000     0.901500000000     0          
T        Si     0.455800000000     0.321500000000     0.812600000000     0          
T        Si     0.455600000000     0.392800000000     0.758500000000     0          
T        Si     0.455600000000     0.392700000000     0.670000000000     0          
O        O      0.738600000000     0.357300000000     0.806400000000     0          
O        O      0.714600000000     0.428700000000     0.802400000000     0          
O        O      0.761900000000     0.408000000000     0.857400000000     0          
O        O      0.642200000000     0.443800000000     0.928000000000     0          
O        O      0.667000000000     0.450100000000     0.857000000000     0          
O        O      0.714300000000     0.428900000000     0.912000000000     0          
O        O      0.642800000000     0.444200000000     0.785700000000     0          
O        O      0.618900000000     0.449100000000     0.714200000000     0          
T        Si     0.750300000000     0.401500000000     0.813100000000     0          
T        Si     0.607500000000     0.455500000000     0.956100000000     0          
T        Si     0.678100000000     0.455700000000     0.901500000000     0          
T        Si     0.678500000000     0.455800000000     0.812600000000     0          
T        Si     0.607200000000     0.455600000000     0.758500000000     0          
T        Si     0.607300000000     0.455600000000     0.670000000000     0          
O        O      0.642700000000     0.738600000000     0.806400000000     0          
O        O      0.571300000000     0.714600000000     0.802400000000     0          
O        O      0.592000000000     0.761900000000     0.857400000000     0          
O        O      0.556200000000     0.642200000000     0.928000000000     0          
O        O      0.549900000000     0.667000000000     0.857000000000     0          
O        O      0.571100000000     0.714300000000     0.912000000000     0          
O        O      0.555800000000     0.642800000000     0.785700000000     0          
O        O      0.550900000000     0.618900000000     0.714200000000     0          
T        Si     0.598500000000     0.750300000000     0.813100000000     0          
T        Si     0.544500000000     0.607500000000     0.956100000000     0          
T        Si     0.544300000000     0.678100000000     0.901500000000     0          
T        Si     0.544200000000     0.678500000000     0.812600000000     0          
T        Si     0.544400000000     0.607200000000     0.758500000000     0          
T        Si     0.544400000000     0.607300000000     0.670000000000     0          
O        O      0.738600000000     0.642700000000     0.193600000000     0          
O        O      0.714600000000     0.571300000000     0.197600000000     0          
O        O      0.761900000000     0.592000000000     0.142600000000     0          
O        O      0.642200000000     0.556200000000     0.072000000000     0          
O        O      0.667000000000     0.549900000000     0.143000000000     0          
O        O      0.714300000000     0.571100000000     0.088000000000     0          
O        O      0.642800000000     0.555800000000     0.214300000000     0          
O        O      0.618900000000     0.550900000000     0.285800000000     0          
T        Si     0.750300000000     0.598500000000     0.186900000000     0          
T        Si     0.607500000000     0.544500000000     0.043900000000     0          
T        Si     0.678100000000     0.544300000000     0.098500000000     0          
T        Si     0.678500000000     0.544200000000     0.187400000000     0          
T        Si     0.607200000000     0.544400000000     0.241500000000     0          
T        Si     0.607300000000     0.544400000000     0.330000000000     0          
O        O      0.357300000000     0.738600000000     0.193600000000     0          
O        O      0.428700000000     0.714600000000     0.197600000000     0          
O        O      0.408000000000     0.761900000000     0.142600000000     0          
O        O      0.443800000000     0.642200000000     0.072000000000     0          
O        O      0.450100000000     0.667000000000     0.143000000000     0          
O        O      0.428900000000     0.714300000000     0.088000000000     0          
O        O      0.444200000000     0.642800000000     0.214300000000     0          
O        O      0.449100000000     0.618900000000     0.285800000000     0          
T        Si     0.401500000000     0.750300000000     0.186900000000     0          
T        Si     0.455500000000     0.607500000000     0.043900000000     0          
T        Si     0.455700000000     0.678100000000     0.098500000000     0          
T        Si     0.455800000000     0.678500000000     0.187400000000     0          
T        Si     0.455600000000     0.607200000000     0.241500000000     0          
T        Si     0.455600000000     0.607300000000     0.330000000000     0          
O        O      0.642700000000     0.261400000000     0.193600000000     0          
O        O      0.571300000000     0.285400000000     0.197600000000     0          
O        O      0.592000000000     0.238100000000     0.142600000000     0          
O        O      0.556200000000     0.357800000000     0.072000000000     0          
O        O      0.549900000000     0.333000000000     0.143000000000     0          
O        O      0.571100000000     0.285700000000     0.088000000000     0          
O        O      0.555800000000     0.357200000000     0.214300000000     0          
O        O      0.550900000000     0.381100000000     0.285800000000     0          
T        Si     0.598500000000     0.249700000000     0.186900000000     0          
T        Si     0.544500000000     0.392500000000     0.043900000000     0          
T        Si     0.544300000000     0.321900000000     0.098500000000     0          
T        Si     0.544200000000     0.321500000000     0.187400000000     0          
T        Si     0.544400000000     0.392800000000     0.241500000000     0          
T        Si     0.544400000000     0.392700000000     0.330000000000     0          


