data_zeolite

_audit_creation_method RASPA-1.0
_audit_creation_date 2021-6-6
_audit_author_name ''

_cell_length_a    27.268
_cell_length_b    27.268
_cell_length_c    30.508
_cell_angle_alpha 90
_cell_angle_beta  90
_cell_angle_gamma 90
_cell_volume      22684

_symmetry_cell_setting          tetragonal
_symmetry_space_group_name_Hall 'P 1'
_symmetry_space_group_name_H-M  'P 1'
_symmetry_Int_Tables_number     1

_symmetry_equiv_pos_as_xyz 'x,y,z'

loop_
_atom_site_label
_atom_site_type_symbol
_atom_site_fract_x
_atom_site_fract_y
_atom_site_fract_z
_atom_site_charge
O        O      0.250200000000     0.375000000000     0.217475000000     0          
O        O      0.216500000000     0.444450000000     0.165750000000     0          
O        O      0.196100000000     0.446100000000     0.000000000000     0          
O        O      0.285800000000     0.464200000000     0.223025000000     0          
O        O      0.060500000000     0.375000000000     0.111050000000     0          
T        Si     0.237100000000     0.432400000000     0.214000000000     0          
T        Si     0.068650000000     0.431350000000     0.125000000000     0          
O        O      0.375000000000     0.250200000000     0.217475000000     0          
O        O      0.305550000000     0.216500000000     0.165750000000     0          
O        O      0.303900000000     0.196100000000     0.000000000000     0          
O        O      0.285800000000     0.285800000000     0.223025000000     0          
O        O      0.375000000000     0.060500000000     0.111050000000     0          
T        Si     0.317600000000     0.237100000000     0.214000000000     0          
T        Si     0.318650000000     0.068650000000     0.125000000000     0          
O        O      0.499800000000     0.375000000000     0.217475000000     0          
O        O      0.033500000000     0.305550000000     0.165750000000     0          
O        O      0.053900000000     0.303900000000     0.000000000000     0          
O        O      0.464200000000     0.285800000000     0.223025000000     0          
O        O      0.189500000000     0.375000000000     0.111050000000     0          
T        Si     0.012900000000     0.317600000000     0.214000000000     0          
T        Si     0.181350000000     0.318650000000     0.125000000000     0          
O        O      0.375000000000     0.499800000000     0.217475000000     0          
O        O      0.444450000000     0.033500000000     0.165750000000     0          
O        O      0.446100000000     0.053900000000     0.000000000000     0          
O        O      0.464200000000     0.464200000000     0.223025000000     0          
O        O      0.375000000000     0.189500000000     0.111050000000     0          
T        Si     0.432400000000     0.012900000000     0.214000000000     0          
T        Si     0.431350000000     0.181350000000     0.125000000000     0          
O        O      0.000200000000     0.125000000000     0.032525000000     0          
O        O      0.466500000000     0.055550000000     0.084250000000     0          
O        O      0.035800000000     0.035800000000     0.026975000000     0          
O        O      0.310500000000     0.125000000000     0.138950000000     0          
T        Si     0.487100000000     0.067600000000     0.036000000000     0          
O        O      0.125000000000     0.000200000000     0.032525000000     0          
O        O      0.194450000000     0.466500000000     0.084250000000     0          
O        O      0.214200000000     0.035800000000     0.026975000000     0          
O        O      0.125000000000     0.310500000000     0.138950000000     0          
T        Si     0.182400000000     0.487100000000     0.036000000000     0          
O        O      0.249800000000     0.125000000000     0.032525000000     0          
O        O      0.283500000000     0.194450000000     0.084250000000     0          
O        O      0.214200000000     0.214200000000     0.026975000000     0          
O        O      0.439500000000     0.125000000000     0.138950000000     0          
T        Si     0.262900000000     0.182400000000     0.036000000000     0          
O        O      0.125000000000     0.249800000000     0.032525000000     0          
O        O      0.055550000000     0.283500000000     0.084250000000     0          
O        O      0.035800000000     0.214200000000     0.026975000000     0          
O        O      0.125000000000     0.439500000000     0.138950000000     0          
T        Si     0.067600000000     0.262900000000     0.036000000000     0          
O        O      0.283500000000     0.055550000000     0.084250000000     0          
O        O      0.303900000000     0.053900000000     0.000000000000     0          
T        Si     0.262900000000     0.067600000000     0.036000000000     0          
T        Si     0.431350000000     0.068650000000     0.125000000000     0          
O        O      0.194450000000     0.283500000000     0.084250000000     0          
O        O      0.196100000000     0.303900000000     0.000000000000     0          
T        Si     0.182400000000     0.262900000000     0.036000000000     0          
T        Si     0.181350000000     0.431350000000     0.125000000000     0          
O        O      0.466500000000     0.194450000000     0.084250000000     0          
O        O      0.446100000000     0.196100000000     0.000000000000     0          
T        Si     0.487100000000     0.182400000000     0.036000000000     0          
T        Si     0.318650000000     0.181350000000     0.125000000000     0          
O        O      0.055550000000     0.466500000000     0.084250000000     0          
O        O      0.053900000000     0.446100000000     0.000000000000     0          
T        Si     0.067600000000     0.487100000000     0.036000000000     0          
T        Si     0.068650000000     0.318650000000     0.125000000000     0          
O        O      0.033500000000     0.444450000000     0.165750000000     0          
T        Si     0.012900000000     0.432400000000     0.214000000000     0          
O        O      0.305550000000     0.033500000000     0.165750000000     0          
T        Si     0.317600000000     0.012900000000     0.214000000000     0          
O        O      0.216500000000     0.305550000000     0.165750000000     0          
T        Si     0.237100000000     0.317600000000     0.214000000000     0          
O        O      0.444450000000     0.216500000000     0.165750000000     0          
T        Si     0.432400000000     0.237100000000     0.214000000000     0          
O        O      0.250200000000     0.375000000000     0.467475000000     0          
O        O      0.216500000000     0.444450000000     0.415750000000     0          
O        O      0.196100000000     0.446100000000     0.250000000000     0          
O        O      0.285800000000     0.464200000000     0.473025000000     0          
O        O      0.060500000000     0.375000000000     0.361050000000     0          
T        Si     0.237100000000     0.432400000000     0.464000000000     0          
T        Si     0.068650000000     0.431350000000     0.375000000000     0          
O        O      0.375000000000     0.250200000000     0.467475000000     0          
O        O      0.305550000000     0.216500000000     0.415750000000     0          
O        O      0.303900000000     0.196100000000     0.250000000000     0          
O        O      0.285800000000     0.285800000000     0.473025000000     0          
O        O      0.375000000000     0.060500000000     0.361050000000     0          
T        Si     0.317600000000     0.237100000000     0.464000000000     0          
T        Si     0.318650000000     0.068650000000     0.375000000000     0          
O        O      0.499800000000     0.375000000000     0.467475000000     0          
O        O      0.033500000000     0.305550000000     0.415750000000     0          
O        O      0.053900000000     0.303900000000     0.250000000000     0          
O        O      0.464200000000     0.285800000000     0.473025000000     0          
O        O      0.189500000000     0.375000000000     0.361050000000     0          
T        Si     0.012900000000     0.317600000000     0.464000000000     0          
T        Si     0.181350000000     0.318650000000     0.375000000000     0          
O        O      0.375000000000     0.499800000000     0.467475000000     0          
O        O      0.444450000000     0.033500000000     0.415750000000     0          
O        O      0.446100000000     0.053900000000     0.250000000000     0          
O        O      0.464200000000     0.464200000000     0.473025000000     0          
O        O      0.375000000000     0.189500000000     0.361050000000     0          
T        Si     0.432400000000     0.012900000000     0.464000000000     0          
T        Si     0.431350000000     0.181350000000     0.375000000000     0          
O        O      0.000200000000     0.125000000000     0.282525000000     0          
O        O      0.466500000000     0.055550000000     0.334250000000     0          
O        O      0.035800000000     0.035800000000     0.276975000000     0          
O        O      0.310500000000     0.125000000000     0.388950000000     0          
T        Si     0.487100000000     0.067600000000     0.286000000000     0          
O        O      0.125000000000     0.000200000000     0.282525000000     0          
O        O      0.194450000000     0.466500000000     0.334250000000     0          
O        O      0.214200000000     0.035800000000     0.276975000000     0          
O        O      0.125000000000     0.310500000000     0.388950000000     0          
T        Si     0.182400000000     0.487100000000     0.286000000000     0          
O        O      0.249800000000     0.125000000000     0.282525000000     0          
O        O      0.283500000000     0.194450000000     0.334250000000     0          
O        O      0.214200000000     0.214200000000     0.276975000000     0          
O        O      0.439500000000     0.125000000000     0.388950000000     0          
T        Si     0.262900000000     0.182400000000     0.286000000000     0          
O        O      0.125000000000     0.249800000000     0.282525000000     0          
O        O      0.055550000000     0.283500000000     0.334250000000     0          
O        O      0.035800000000     0.214200000000     0.276975000000     0          
O        O      0.125000000000     0.439500000000     0.388950000000     0          
T        Si     0.067600000000     0.262900000000     0.286000000000     0          
O        O      0.283500000000     0.055550000000     0.334250000000     0          
O        O      0.303900000000     0.053900000000     0.250000000000     0          
T        Si     0.262900000000     0.067600000000     0.286000000000     0          
T        Si     0.431350000000     0.068650000000     0.375000000000     0          
O        O      0.194450000000     0.283500000000     0.334250000000     0          
O        O      0.196100000000     0.303900000000     0.250000000000     0          
T        Si     0.182400000000     0.262900000000     0.286000000000     0          
T        Si     0.181350000000     0.431350000000     0.375000000000     0          
O        O      0.466500000000     0.194450000000     0.334250000000     0          
O        O      0.446100000000     0.196100000000     0.250000000000     0          
T        Si     0.487100000000     0.182400000000     0.286000000000     0          
T        Si     0.318650000000     0.181350000000     0.375000000000     0          
O        O      0.055550000000     0.466500000000     0.334250000000     0          
O        O      0.053900000000     0.446100000000     0.250000000000     0          
T        Si     0.067600000000     0.487100000000     0.286000000000     0          
T        Si     0.068650000000     0.318650000000     0.375000000000     0          
O        O      0.033500000000     0.444450000000     0.415750000000     0          
T        Si     0.012900000000     0.432400000000     0.464000000000     0          
O        O      0.305550000000     0.033500000000     0.415750000000     0          
T        Si     0.317600000000     0.012900000000     0.464000000000     0          
O        O      0.216500000000     0.305550000000     0.415750000000     0          
T        Si     0.237100000000     0.317600000000     0.464000000000     0          
O        O      0.444450000000     0.216500000000     0.415750000000     0          
T        Si     0.432400000000     0.237100000000     0.464000000000     0          
O        O      0.250200000000     0.375000000000     0.717475000000     0          
O        O      0.216500000000     0.444450000000     0.665750000000     0          
O        O      0.196100000000     0.446100000000     0.500000000000     0          
O        O      0.285800000000     0.464200000000     0.723025000000     0          
O        O      0.060500000000     0.375000000000     0.611050000000     0          
T        Si     0.237100000000     0.432400000000     0.714000000000     0          
T        Si     0.068650000000     0.431350000000     0.625000000000     0          
O        O      0.375000000000     0.250200000000     0.717475000000     0          
O        O      0.305550000000     0.216500000000     0.665750000000     0          
O        O      0.303900000000     0.196100000000     0.500000000000     0          
O        O      0.285800000000     0.285800000000     0.723025000000     0          
O        O      0.375000000000     0.060500000000     0.611050000000     0          
T        Si     0.317600000000     0.237100000000     0.714000000000     0          
T        Si     0.318650000000     0.068650000000     0.625000000000     0          
O        O      0.499800000000     0.375000000000     0.717475000000     0          
O        O      0.033500000000     0.305550000000     0.665750000000     0          
O        O      0.053900000000     0.303900000000     0.500000000000     0          
O        O      0.464200000000     0.285800000000     0.723025000000     0          
O        O      0.189500000000     0.375000000000     0.611050000000     0          
T        Si     0.012900000000     0.317600000000     0.714000000000     0          
T        Si     0.181350000000     0.318650000000     0.625000000000     0          
O        O      0.375000000000     0.499800000000     0.717475000000     0          
O        O      0.444450000000     0.033500000000     0.665750000000     0          
O        O      0.446100000000     0.053900000000     0.500000000000     0          
O        O      0.464200000000     0.464200000000     0.723025000000     0          
O        O      0.375000000000     0.189500000000     0.611050000000     0          
T        Si     0.432400000000     0.012900000000     0.714000000000     0          
T        Si     0.431350000000     0.181350000000     0.625000000000     0          
O        O      0.000200000000     0.125000000000     0.532525000000     0          
O        O      0.466500000000     0.055550000000     0.584250000000     0          
O        O      0.035800000000     0.035800000000     0.526975000000     0          
O        O      0.310500000000     0.125000000000     0.638950000000     0          
T        Si     0.487100000000     0.067600000000     0.536000000000     0          
O        O      0.125000000000     0.000200000000     0.532525000000     0          
O        O      0.194450000000     0.466500000000     0.584250000000     0          
O        O      0.214200000000     0.035800000000     0.526975000000     0          
O        O      0.125000000000     0.310500000000     0.638950000000     0          
T        Si     0.182400000000     0.487100000000     0.536000000000     0          
O        O      0.249800000000     0.125000000000     0.532525000000     0          
O        O      0.283500000000     0.194450000000     0.584250000000     0          
O        O      0.214200000000     0.214200000000     0.526975000000     0          
O        O      0.439500000000     0.125000000000     0.638950000000     0          
T        Si     0.262900000000     0.182400000000     0.536000000000     0          
O        O      0.125000000000     0.249800000000     0.532525000000     0          
O        O      0.055550000000     0.283500000000     0.584250000000     0          
O        O      0.035800000000     0.214200000000     0.526975000000     0          
O        O      0.125000000000     0.439500000000     0.638950000000     0          
T        Si     0.067600000000     0.262900000000     0.536000000000     0          
O        O      0.283500000000     0.055550000000     0.584250000000     0          
O        O      0.303900000000     0.053900000000     0.500000000000     0          
T        Si     0.262900000000     0.067600000000     0.536000000000     0          
T        Si     0.431350000000     0.068650000000     0.625000000000     0          
O        O      0.194450000000     0.283500000000     0.584250000000     0          
O        O      0.196100000000     0.303900000000     0.500000000000     0          
T        Si     0.182400000000     0.262900000000     0.536000000000     0          
T        Si     0.181350000000     0.431350000000     0.625000000000     0          
O        O      0.466500000000     0.194450000000     0.584250000000     0          
O        O      0.446100000000     0.196100000000     0.500000000000     0          
T        Si     0.487100000000     0.182400000000     0.536000000000     0          
T        Si     0.318650000000     0.181350000000     0.625000000000     0          
O        O      0.055550000000     0.466500000000     0.584250000000     0          
O        O      0.053900000000     0.446100000000     0.500000000000     0          
T        Si     0.067600000000     0.487100000000     0.536000000000     0          
T        Si     0.068650000000     0.318650000000     0.625000000000     0          
O        O      0.033500000000     0.444450000000     0.665750000000     0          
T        Si     0.012900000000     0.432400000000     0.714000000000     0          
O        O      0.305550000000     0.033500000000     0.665750000000     0          
T        Si     0.317600000000     0.012900000000     0.714000000000     0          
O        O      0.216500000000     0.305550000000     0.665750000000     0          
T        Si     0.237100000000     0.317600000000     0.714000000000     0          
O        O      0.444450000000     0.216500000000     0.665750000000     0          
T        Si     0.432400000000     0.237100000000     0.714000000000     0          
O        O      0.250200000000     0.375000000000     0.967475000000     0          
O        O      0.216500000000     0.444450000000     0.915750000000     0          
O        O      0.196100000000     0.446100000000     0.750000000000     0          
O        O      0.285800000000     0.464200000000     0.973025000000     0          
O        O      0.060500000000     0.375000000000     0.861050000000     0          
T        Si     0.237100000000     0.432400000000     0.964000000000     0          
T        Si     0.068650000000     0.431350000000     0.875000000000     0          
O        O      0.375000000000     0.250200000000     0.967475000000     0          
O        O      0.305550000000     0.216500000000     0.915750000000     0          
O        O      0.303900000000     0.196100000000     0.750000000000     0          
O        O      0.285800000000     0.285800000000     0.973025000000     0          
O        O      0.375000000000     0.060500000000     0.861050000000     0          
T        Si     0.317600000000     0.237100000000     0.964000000000     0          
T        Si     0.318650000000     0.068650000000     0.875000000000     0          
O        O      0.499800000000     0.375000000000     0.967475000000     0          
O        O      0.033500000000     0.305550000000     0.915750000000     0          
O        O      0.053900000000     0.303900000000     0.750000000000     0          
O        O      0.464200000000     0.285800000000     0.973025000000     0          
O        O      0.189500000000     0.375000000000     0.861050000000     0          
T        Si     0.012900000000     0.317600000000     0.964000000000     0          
T        Si     0.181350000000     0.318650000000     0.875000000000     0          
O        O      0.375000000000     0.499800000000     0.967475000000     0          
O        O      0.444450000000     0.033500000000     0.915750000000     0          
O        O      0.446100000000     0.053900000000     0.750000000000     0          
O        O      0.464200000000     0.464200000000     0.973025000000     0          
O        O      0.375000000000     0.189500000000     0.861050000000     0          
T        Si     0.432400000000     0.012900000000     0.964000000000     0          
T        Si     0.431350000000     0.181350000000     0.875000000000     0          
O        O      0.000200000000     0.125000000000     0.782525000000     0          
O        O      0.466500000000     0.055550000000     0.834250000000     0          
O        O      0.035800000000     0.035800000000     0.776975000000     0          
O        O      0.310500000000     0.125000000000     0.888950000000     0          
T        Si     0.487100000000     0.067600000000     0.786000000000     0          
O        O      0.125000000000     0.000200000000     0.782525000000     0          
O        O      0.194450000000     0.466500000000     0.834250000000     0          
O        O      0.214200000000     0.035800000000     0.776975000000     0          
O        O      0.125000000000     0.310500000000     0.888950000000     0          
T        Si     0.182400000000     0.487100000000     0.786000000000     0          
O        O      0.249800000000     0.125000000000     0.782525000000     0          
O        O      0.283500000000     0.194450000000     0.834250000000     0          
O        O      0.214200000000     0.214200000000     0.776975000000     0          
O        O      0.439500000000     0.125000000000     0.888950000000     0          
T        Si     0.262900000000     0.182400000000     0.786000000000     0          
O        O      0.125000000000     0.249800000000     0.782525000000     0          
O        O      0.055550000000     0.283500000000     0.834250000000     0          
O        O      0.035800000000     0.214200000000     0.776975000000     0          
O        O      0.125000000000     0.439500000000     0.888950000000     0          
T        Si     0.067600000000     0.262900000000     0.786000000000     0          
O        O      0.283500000000     0.055550000000     0.834250000000     0          
O        O      0.303900000000     0.053900000000     0.750000000000     0          
T        Si     0.262900000000     0.067600000000     0.786000000000     0          
T        Si     0.431350000000     0.068650000000     0.875000000000     0          
O        O      0.194450000000     0.283500000000     0.834250000000     0          
O        O      0.196100000000     0.303900000000     0.750000000000     0          
T        Si     0.182400000000     0.262900000000     0.786000000000     0          
T        Si     0.181350000000     0.431350000000     0.875000000000     0          
O        O      0.466500000000     0.194450000000     0.834250000000     0          
O        O      0.446100000000     0.196100000000     0.750000000000     0          
T        Si     0.487100000000     0.182400000000     0.786000000000     0          
T        Si     0.318650000000     0.181350000000     0.875000000000     0          
O        O      0.055550000000     0.466500000000     0.834250000000     0          
O        O      0.053900000000     0.446100000000     0.750000000000     0          
T        Si     0.067600000000     0.487100000000     0.786000000000     0          
T        Si     0.068650000000     0.318650000000     0.875000000000     0          
O        O      0.033500000000     0.444450000000     0.915750000000     0          
T        Si     0.012900000000     0.432400000000     0.964000000000     0          
O        O      0.305550000000     0.033500000000     0.915750000000     0          
T        Si     0.317600000000     0.012900000000     0.964000000000     0          
O        O      0.216500000000     0.305550000000     0.915750000000     0          
T        Si     0.237100000000     0.317600000000     0.964000000000     0          
O        O      0.444450000000     0.216500000000     0.915750000000     0          
T        Si     0.432400000000     0.237100000000     0.964000000000     0          
O        O      0.250200000000     0.875000000000     0.217475000000     0          
O        O      0.216500000000     0.944450000000     0.165750000000     0          
O        O      0.196100000000     0.946100000000     0.000000000000     0          
O        O      0.285800000000     0.964200000000     0.223025000000     0          
O        O      0.060500000000     0.875000000000     0.111050000000     0          
T        Si     0.237100000000     0.932400000000     0.214000000000     0          
T        Si     0.068650000000     0.931350000000     0.125000000000     0          
O        O      0.375000000000     0.750200000000     0.217475000000     0          
O        O      0.305550000000     0.716500000000     0.165750000000     0          
O        O      0.303900000000     0.696100000000     0.000000000000     0          
O        O      0.285800000000     0.785800000000     0.223025000000     0          
O        O      0.375000000000     0.560500000000     0.111050000000     0          
T        Si     0.317600000000     0.737100000000     0.214000000000     0          
T        Si     0.318650000000     0.568650000000     0.125000000000     0          
O        O      0.499800000000     0.875000000000     0.217475000000     0          
O        O      0.033500000000     0.805550000000     0.165750000000     0          
O        O      0.053900000000     0.803900000000     0.000000000000     0          
O        O      0.464200000000     0.785800000000     0.223025000000     0          
O        O      0.189500000000     0.875000000000     0.111050000000     0          
T        Si     0.012900000000     0.817600000000     0.214000000000     0          
T        Si     0.181350000000     0.818650000000     0.125000000000     0          
O        O      0.375000000000     0.999800000000     0.217475000000     0          
O        O      0.444450000000     0.533500000000     0.165750000000     0          
O        O      0.446100000000     0.553900000000     0.000000000000     0          
O        O      0.464200000000     0.964200000000     0.223025000000     0          
O        O      0.375000000000     0.689500000000     0.111050000000     0          
T        Si     0.432400000000     0.512900000000     0.214000000000     0          
T        Si     0.431350000000     0.681350000000     0.125000000000     0          
O        O      0.000200000000     0.625000000000     0.032525000000     0          
O        O      0.466500000000     0.555550000000     0.084250000000     0          
O        O      0.035800000000     0.535800000000     0.026975000000     0          
O        O      0.310500000000     0.625000000000     0.138950000000     0          
T        Si     0.487100000000     0.567600000000     0.036000000000     0          
O        O      0.125000000000     0.500200000000     0.032525000000     0          
O        O      0.194450000000     0.966500000000     0.084250000000     0          
O        O      0.214200000000     0.535800000000     0.026975000000     0          
O        O      0.125000000000     0.810500000000     0.138950000000     0          
T        Si     0.182400000000     0.987100000000     0.036000000000     0          
O        O      0.249800000000     0.625000000000     0.032525000000     0          
O        O      0.283500000000     0.694450000000     0.084250000000     0          
O        O      0.214200000000     0.714200000000     0.026975000000     0          
O        O      0.439500000000     0.625000000000     0.138950000000     0          
T        Si     0.262900000000     0.682400000000     0.036000000000     0          
O        O      0.125000000000     0.749800000000     0.032525000000     0          
O        O      0.055550000000     0.783500000000     0.084250000000     0          
O        O      0.035800000000     0.714200000000     0.026975000000     0          
O        O      0.125000000000     0.939500000000     0.138950000000     0          
T        Si     0.067600000000     0.762900000000     0.036000000000     0          
O        O      0.283500000000     0.555550000000     0.084250000000     0          
O        O      0.303900000000     0.553900000000     0.000000000000     0          
T        Si     0.262900000000     0.567600000000     0.036000000000     0          
T        Si     0.431350000000     0.568650000000     0.125000000000     0          
O        O      0.194450000000     0.783500000000     0.084250000000     0          
O        O      0.196100000000     0.803900000000     0.000000000000     0          
T        Si     0.182400000000     0.762900000000     0.036000000000     0          
T        Si     0.181350000000     0.931350000000     0.125000000000     0          
O        O      0.466500000000     0.694450000000     0.084250000000     0          
O        O      0.446100000000     0.696100000000     0.000000000000     0          
T        Si     0.487100000000     0.682400000000     0.036000000000     0          
T        Si     0.318650000000     0.681350000000     0.125000000000     0          
O        O      0.055550000000     0.966500000000     0.084250000000     0          
O        O      0.053900000000     0.946100000000     0.000000000000     0          
T        Si     0.067600000000     0.987100000000     0.036000000000     0          
T        Si     0.068650000000     0.818650000000     0.125000000000     0          
O        O      0.033500000000     0.944450000000     0.165750000000     0          
T        Si     0.012900000000     0.932400000000     0.214000000000     0          
O        O      0.305550000000     0.533500000000     0.165750000000     0          
T        Si     0.317600000000     0.512900000000     0.214000000000     0          
O        O      0.216500000000     0.805550000000     0.165750000000     0          
T        Si     0.237100000000     0.817600000000     0.214000000000     0          
O        O      0.444450000000     0.716500000000     0.165750000000     0          
T        Si     0.432400000000     0.737100000000     0.214000000000     0          
O        O      0.250200000000     0.875000000000     0.467475000000     0          
O        O      0.216500000000     0.944450000000     0.415750000000     0          
O        O      0.196100000000     0.946100000000     0.250000000000     0          
O        O      0.285800000000     0.964200000000     0.473025000000     0          
O        O      0.060500000000     0.875000000000     0.361050000000     0          
T        Si     0.237100000000     0.932400000000     0.464000000000     0          
T        Si     0.068650000000     0.931350000000     0.375000000000     0          
O        O      0.375000000000     0.750200000000     0.467475000000     0          
O        O      0.305550000000     0.716500000000     0.415750000000     0          
O        O      0.303900000000     0.696100000000     0.250000000000     0          
O        O      0.285800000000     0.785800000000     0.473025000000     0          
O        O      0.375000000000     0.560500000000     0.361050000000     0          
T        Si     0.317600000000     0.737100000000     0.464000000000     0          
T        Si     0.318650000000     0.568650000000     0.375000000000     0          
O        O      0.499800000000     0.875000000000     0.467475000000     0          
O        O      0.033500000000     0.805550000000     0.415750000000     0          
O        O      0.053900000000     0.803900000000     0.250000000000     0          
O        O      0.464200000000     0.785800000000     0.473025000000     0          
O        O      0.189500000000     0.875000000000     0.361050000000     0          
T        Si     0.012900000000     0.817600000000     0.464000000000     0          
T        Si     0.181350000000     0.818650000000     0.375000000000     0          
O        O      0.375000000000     0.999800000000     0.467475000000     0          
O        O      0.444450000000     0.533500000000     0.415750000000     0          
O        O      0.446100000000     0.553900000000     0.250000000000     0          
O        O      0.464200000000     0.964200000000     0.473025000000     0          
O        O      0.375000000000     0.689500000000     0.361050000000     0          
T        Si     0.432400000000     0.512900000000     0.464000000000     0          
T        Si     0.431350000000     0.681350000000     0.375000000000     0          
O        O      0.000200000000     0.625000000000     0.282525000000     0          
O        O      0.466500000000     0.555550000000     0.334250000000     0          
O        O      0.035800000000     0.535800000000     0.276975000000     0          
O        O      0.310500000000     0.625000000000     0.388950000000     0          
T        Si     0.487100000000     0.567600000000     0.286000000000     0          
O        O      0.125000000000     0.500200000000     0.282525000000     0          
O        O      0.194450000000     0.966500000000     0.334250000000     0          
O        O      0.214200000000     0.535800000000     0.276975000000     0          
O        O      0.125000000000     0.810500000000     0.388950000000     0          
T        Si     0.182400000000     0.987100000000     0.286000000000     0          
O        O      0.249800000000     0.625000000000     0.282525000000     0          
O        O      0.283500000000     0.694450000000     0.334250000000     0          
O        O      0.214200000000     0.714200000000     0.276975000000     0          
O        O      0.439500000000     0.625000000000     0.388950000000     0          
T        Si     0.262900000000     0.682400000000     0.286000000000     0          
O        O      0.125000000000     0.749800000000     0.282525000000     0          
O        O      0.055550000000     0.783500000000     0.334250000000     0          
O        O      0.035800000000     0.714200000000     0.276975000000     0          
O        O      0.125000000000     0.939500000000     0.388950000000     0          
T        Si     0.067600000000     0.762900000000     0.286000000000     0          
O        O      0.283500000000     0.555550000000     0.334250000000     0          
O        O      0.303900000000     0.553900000000     0.250000000000     0          
T        Si     0.262900000000     0.567600000000     0.286000000000     0          
T        Si     0.431350000000     0.568650000000     0.375000000000     0          
O        O      0.194450000000     0.783500000000     0.334250000000     0          
O        O      0.196100000000     0.803900000000     0.250000000000     0          
T        Si     0.182400000000     0.762900000000     0.286000000000     0          
T        Si     0.181350000000     0.931350000000     0.375000000000     0          
O        O      0.466500000000     0.694450000000     0.334250000000     0          
O        O      0.446100000000     0.696100000000     0.250000000000     0          
T        Si     0.487100000000     0.682400000000     0.286000000000     0          
T        Si     0.318650000000     0.681350000000     0.375000000000     0          
O        O      0.055550000000     0.966500000000     0.334250000000     0          
O        O      0.053900000000     0.946100000000     0.250000000000     0          
T        Si     0.067600000000     0.987100000000     0.286000000000     0          
T        Si     0.068650000000     0.818650000000     0.375000000000     0          
O        O      0.033500000000     0.944450000000     0.415750000000     0          
T        Si     0.012900000000     0.932400000000     0.464000000000     0          
O        O      0.305550000000     0.533500000000     0.415750000000     0          
T        Si     0.317600000000     0.512900000000     0.464000000000     0          
O        O      0.216500000000     0.805550000000     0.415750000000     0          
T        Si     0.237100000000     0.817600000000     0.464000000000     0          
O        O      0.444450000000     0.716500000000     0.415750000000     0          
T        Si     0.432400000000     0.737100000000     0.464000000000     0          
O        O      0.250200000000     0.875000000000     0.717475000000     0          
O        O      0.216500000000     0.944450000000     0.665750000000     0          
O        O      0.196100000000     0.946100000000     0.500000000000     0          
O        O      0.285800000000     0.964200000000     0.723025000000     0          
O        O      0.060500000000     0.875000000000     0.611050000000     0          
T        Si     0.237100000000     0.932400000000     0.714000000000     0          
T        Si     0.068650000000     0.931350000000     0.625000000000     0          
O        O      0.375000000000     0.750200000000     0.717475000000     0          
O        O      0.305550000000     0.716500000000     0.665750000000     0          
O        O      0.303900000000     0.696100000000     0.500000000000     0          
O        O      0.285800000000     0.785800000000     0.723025000000     0          
O        O      0.375000000000     0.560500000000     0.611050000000     0          
T        Si     0.317600000000     0.737100000000     0.714000000000     0          
T        Si     0.318650000000     0.568650000000     0.625000000000     0          
O        O      0.499800000000     0.875000000000     0.717475000000     0          
O        O      0.033500000000     0.805550000000     0.665750000000     0          
O        O      0.053900000000     0.803900000000     0.500000000000     0          
O        O      0.464200000000     0.785800000000     0.723025000000     0          
O        O      0.189500000000     0.875000000000     0.611050000000     0          
T        Si     0.012900000000     0.817600000000     0.714000000000     0          
T        Si     0.181350000000     0.818650000000     0.625000000000     0          
O        O      0.375000000000     0.999800000000     0.717475000000     0          
O        O      0.444450000000     0.533500000000     0.665750000000     0          
O        O      0.446100000000     0.553900000000     0.500000000000     0          
O        O      0.464200000000     0.964200000000     0.723025000000     0          
O        O      0.375000000000     0.689500000000     0.611050000000     0          
T        Si     0.432400000000     0.512900000000     0.714000000000     0          
T        Si     0.431350000000     0.681350000000     0.625000000000     0          
O        O      0.000200000000     0.625000000000     0.532525000000     0          
O        O      0.466500000000     0.555550000000     0.584250000000     0          
O        O      0.035800000000     0.535800000000     0.526975000000     0          
O        O      0.310500000000     0.625000000000     0.638950000000     0          
T        Si     0.487100000000     0.567600000000     0.536000000000     0          
O        O      0.125000000000     0.500200000000     0.532525000000     0          
O        O      0.194450000000     0.966500000000     0.584250000000     0          
O        O      0.214200000000     0.535800000000     0.526975000000     0          
O        O      0.125000000000     0.810500000000     0.638950000000     0          
T        Si     0.182400000000     0.987100000000     0.536000000000     0          
O        O      0.249800000000     0.625000000000     0.532525000000     0          
O        O      0.283500000000     0.694450000000     0.584250000000     0          
O        O      0.214200000000     0.714200000000     0.526975000000     0          
O        O      0.439500000000     0.625000000000     0.638950000000     0          
T        Si     0.262900000000     0.682400000000     0.536000000000     0          
O        O      0.125000000000     0.749800000000     0.532525000000     0          
O        O      0.055550000000     0.783500000000     0.584250000000     0          
O        O      0.035800000000     0.714200000000     0.526975000000     0          
O        O      0.125000000000     0.939500000000     0.638950000000     0          
T        Si     0.067600000000     0.762900000000     0.536000000000     0          
O        O      0.283500000000     0.555550000000     0.584250000000     0          
O        O      0.303900000000     0.553900000000     0.500000000000     0          
T        Si     0.262900000000     0.567600000000     0.536000000000     0          
T        Si     0.431350000000     0.568650000000     0.625000000000     0          
O        O      0.194450000000     0.783500000000     0.584250000000     0          
O        O      0.196100000000     0.803900000000     0.500000000000     0          
T        Si     0.182400000000     0.762900000000     0.536000000000     0          
T        Si     0.181350000000     0.931350000000     0.625000000000     0          
O        O      0.466500000000     0.694450000000     0.584250000000     0          
O        O      0.446100000000     0.696100000000     0.500000000000     0          
T        Si     0.487100000000     0.682400000000     0.536000000000     0          
T        Si     0.318650000000     0.681350000000     0.625000000000     0          
O        O      0.055550000000     0.966500000000     0.584250000000     0          
O        O      0.053900000000     0.946100000000     0.500000000000     0          
T        Si     0.067600000000     0.987100000000     0.536000000000     0          
T        Si     0.068650000000     0.818650000000     0.625000000000     0          
O        O      0.033500000000     0.944450000000     0.665750000000     0          
T        Si     0.012900000000     0.932400000000     0.714000000000     0          
O        O      0.305550000000     0.533500000000     0.665750000000     0          
T        Si     0.317600000000     0.512900000000     0.714000000000     0          
O        O      0.216500000000     0.805550000000     0.665750000000     0          
T        Si     0.237100000000     0.817600000000     0.714000000000     0          
O        O      0.444450000000     0.716500000000     0.665750000000     0          
T        Si     0.432400000000     0.737100000000     0.714000000000     0          
O        O      0.250200000000     0.875000000000     0.967475000000     0          
O        O      0.216500000000     0.944450000000     0.915750000000     0          
O        O      0.196100000000     0.946100000000     0.750000000000     0          
O        O      0.285800000000     0.964200000000     0.973025000000     0          
O        O      0.060500000000     0.875000000000     0.861050000000     0          
T        Si     0.237100000000     0.932400000000     0.964000000000     0          
T        Si     0.068650000000     0.931350000000     0.875000000000     0          
O        O      0.375000000000     0.750200000000     0.967475000000     0          
O        O      0.305550000000     0.716500000000     0.915750000000     0          
O        O      0.303900000000     0.696100000000     0.750000000000     0          
O        O      0.285800000000     0.785800000000     0.973025000000     0          
O        O      0.375000000000     0.560500000000     0.861050000000     0          
T        Si     0.317600000000     0.737100000000     0.964000000000     0          
T        Si     0.318650000000     0.568650000000     0.875000000000     0          
O        O      0.499800000000     0.875000000000     0.967475000000     0          
O        O      0.033500000000     0.805550000000     0.915750000000     0          
O        O      0.053900000000     0.803900000000     0.750000000000     0          
O        O      0.464200000000     0.785800000000     0.973025000000     0          
O        O      0.189500000000     0.875000000000     0.861050000000     0          
T        Si     0.012900000000     0.817600000000     0.964000000000     0          
T        Si     0.181350000000     0.818650000000     0.875000000000     0          
O        O      0.375000000000     0.999800000000     0.967475000000     0          
O        O      0.444450000000     0.533500000000     0.915750000000     0          
O        O      0.446100000000     0.553900000000     0.750000000000     0          
O        O      0.464200000000     0.964200000000     0.973025000000     0          
O        O      0.375000000000     0.689500000000     0.861050000000     0          
T        Si     0.432400000000     0.512900000000     0.964000000000     0          
T        Si     0.431350000000     0.681350000000     0.875000000000     0          
O        O      0.000200000000     0.625000000000     0.782525000000     0          
O        O      0.466500000000     0.555550000000     0.834250000000     0          
O        O      0.035800000000     0.535800000000     0.776975000000     0          
O        O      0.310500000000     0.625000000000     0.888950000000     0          
T        Si     0.487100000000     0.567600000000     0.786000000000     0          
O        O      0.125000000000     0.500200000000     0.782525000000     0          
O        O      0.194450000000     0.966500000000     0.834250000000     0          
O        O      0.214200000000     0.535800000000     0.776975000000     0          
O        O      0.125000000000     0.810500000000     0.888950000000     0          
T        Si     0.182400000000     0.987100000000     0.786000000000     0          
O        O      0.249800000000     0.625000000000     0.782525000000     0          
O        O      0.283500000000     0.694450000000     0.834250000000     0          
O        O      0.214200000000     0.714200000000     0.776975000000     0          
O        O      0.439500000000     0.625000000000     0.888950000000     0          
T        Si     0.262900000000     0.682400000000     0.786000000000     0          
O        O      0.125000000000     0.749800000000     0.782525000000     0          
O        O      0.055550000000     0.783500000000     0.834250000000     0          
O        O      0.035800000000     0.714200000000     0.776975000000     0          
O        O      0.125000000000     0.939500000000     0.888950000000     0          
T        Si     0.067600000000     0.762900000000     0.786000000000     0          
O        O      0.283500000000     0.555550000000     0.834250000000     0          
O        O      0.303900000000     0.553900000000     0.750000000000     0          
T        Si     0.262900000000     0.567600000000     0.786000000000     0          
T        Si     0.431350000000     0.568650000000     0.875000000000     0          
O        O      0.194450000000     0.783500000000     0.834250000000     0          
O        O      0.196100000000     0.803900000000     0.750000000000     0          
T        Si     0.182400000000     0.762900000000     0.786000000000     0          
T        Si     0.181350000000     0.931350000000     0.875000000000     0          
O        O      0.466500000000     0.694450000000     0.834250000000     0          
O        O      0.446100000000     0.696100000000     0.750000000000     0          
T        Si     0.487100000000     0.682400000000     0.786000000000     0          
T        Si     0.318650000000     0.681350000000     0.875000000000     0          
O        O      0.055550000000     0.966500000000     0.834250000000     0          
O        O      0.053900000000     0.946100000000     0.750000000000     0          
T        Si     0.067600000000     0.987100000000     0.786000000000     0          
T        Si     0.068650000000     0.818650000000     0.875000000000     0          
O        O      0.033500000000     0.944450000000     0.915750000000     0          
T        Si     0.012900000000     0.932400000000     0.964000000000     0          
O        O      0.305550000000     0.533500000000     0.915750000000     0          
T        Si     0.317600000000     0.512900000000     0.964000000000     0          
O        O      0.216500000000     0.805550000000     0.915750000000     0          
T        Si     0.237100000000     0.817600000000     0.964000000000     0          
O        O      0.444450000000     0.716500000000     0.915750000000     0          
T        Si     0.432400000000     0.737100000000     0.964000000000     0          
O        O      0.750200000000     0.375000000000     0.217475000000     0          
O        O      0.716500000000     0.444450000000     0.165750000000     0          
O        O      0.696100000000     0.446100000000     0.000000000000     0          
O        O      0.785800000000     0.464200000000     0.223025000000     0          
O        O      0.560500000000     0.375000000000     0.111050000000     0          
T        Si     0.737100000000     0.432400000000     0.214000000000     0          
T        Si     0.568650000000     0.431350000000     0.125000000000     0          
O        O      0.875000000000     0.250200000000     0.217475000000     0          
O        O      0.805550000000     0.216500000000     0.165750000000     0          
O        O      0.803900000000     0.196100000000     0.000000000000     0          
O        O      0.785800000000     0.285800000000     0.223025000000     0          
O        O      0.875000000000     0.060500000000     0.111050000000     0          
T        Si     0.817600000000     0.237100000000     0.214000000000     0          
T        Si     0.818650000000     0.068650000000     0.125000000000     0          
O        O      0.999800000000     0.375000000000     0.217475000000     0          
O        O      0.533500000000     0.305550000000     0.165750000000     0          
O        O      0.553900000000     0.303900000000     0.000000000000     0          
O        O      0.964200000000     0.285800000000     0.223025000000     0          
O        O      0.689500000000     0.375000000000     0.111050000000     0          
T        Si     0.512900000000     0.317600000000     0.214000000000     0          
T        Si     0.681350000000     0.318650000000     0.125000000000     0          
O        O      0.875000000000     0.499800000000     0.217475000000     0          
O        O      0.944450000000     0.033500000000     0.165750000000     0          
O        O      0.946100000000     0.053900000000     0.000000000000     0          
O        O      0.964200000000     0.464200000000     0.223025000000     0          
O        O      0.875000000000     0.189500000000     0.111050000000     0          
T        Si     0.932400000000     0.012900000000     0.214000000000     0          
T        Si     0.931350000000     0.181350000000     0.125000000000     0          
O        O      0.500200000000     0.125000000000     0.032525000000     0          
O        O      0.966500000000     0.055550000000     0.084250000000     0          
O        O      0.535800000000     0.035800000000     0.026975000000     0          
O        O      0.810500000000     0.125000000000     0.138950000000     0          
T        Si     0.987100000000     0.067600000000     0.036000000000     0          
O        O      0.625000000000     0.000200000000     0.032525000000     0          
O        O      0.694450000000     0.466500000000     0.084250000000     0          
O        O      0.714200000000     0.035800000000     0.026975000000     0          
O        O      0.625000000000     0.310500000000     0.138950000000     0          
T        Si     0.682400000000     0.487100000000     0.036000000000     0          
O        O      0.749800000000     0.125000000000     0.032525000000     0          
O        O      0.783500000000     0.194450000000     0.084250000000     0          
O        O      0.714200000000     0.214200000000     0.026975000000     0          
O        O      0.939500000000     0.125000000000     0.138950000000     0          
T        Si     0.762900000000     0.182400000000     0.036000000000     0          
O        O      0.625000000000     0.249800000000     0.032525000000     0          
O        O      0.555550000000     0.283500000000     0.084250000000     0          
O        O      0.535800000000     0.214200000000     0.026975000000     0          
O        O      0.625000000000     0.439500000000     0.138950000000     0          
T        Si     0.567600000000     0.262900000000     0.036000000000     0          
O        O      0.783500000000     0.055550000000     0.084250000000     0          
O        O      0.803900000000     0.053900000000     0.000000000000     0          
T        Si     0.762900000000     0.067600000000     0.036000000000     0          
T        Si     0.931350000000     0.068650000000     0.125000000000     0          
O        O      0.694450000000     0.283500000000     0.084250000000     0          
O        O      0.696100000000     0.303900000000     0.000000000000     0          
T        Si     0.682400000000     0.262900000000     0.036000000000     0          
T        Si     0.681350000000     0.431350000000     0.125000000000     0          
O        O      0.966500000000     0.194450000000     0.084250000000     0          
O        O      0.946100000000     0.196100000000     0.000000000000     0          
T        Si     0.987100000000     0.182400000000     0.036000000000     0          
T        Si     0.818650000000     0.181350000000     0.125000000000     0          
O        O      0.555550000000     0.466500000000     0.084250000000     0          
O        O      0.553900000000     0.446100000000     0.000000000000     0          
T        Si     0.567600000000     0.487100000000     0.036000000000     0          
T        Si     0.568650000000     0.318650000000     0.125000000000     0          
O        O      0.533500000000     0.444450000000     0.165750000000     0          
T        Si     0.512900000000     0.432400000000     0.214000000000     0          
O        O      0.805550000000     0.033500000000     0.165750000000     0          
T        Si     0.817600000000     0.012900000000     0.214000000000     0          
O        O      0.716500000000     0.305550000000     0.165750000000     0          
T        Si     0.737100000000     0.317600000000     0.214000000000     0          
O        O      0.944450000000     0.216500000000     0.165750000000     0          
T        Si     0.932400000000     0.237100000000     0.214000000000     0          
O        O      0.750200000000     0.375000000000     0.467475000000     0          
O        O      0.716500000000     0.444450000000     0.415750000000     0          
O        O      0.696100000000     0.446100000000     0.250000000000     0          
O        O      0.785800000000     0.464200000000     0.473025000000     0          
O        O      0.560500000000     0.375000000000     0.361050000000     0          
T        Si     0.737100000000     0.432400000000     0.464000000000     0          
T        Si     0.568650000000     0.431350000000     0.375000000000     0          
O        O      0.875000000000     0.250200000000     0.467475000000     0          
O        O      0.805550000000     0.216500000000     0.415750000000     0          
O        O      0.803900000000     0.196100000000     0.250000000000     0          
O        O      0.785800000000     0.285800000000     0.473025000000     0          
O        O      0.875000000000     0.060500000000     0.361050000000     0          
T        Si     0.817600000000     0.237100000000     0.464000000000     0          
T        Si     0.818650000000     0.068650000000     0.375000000000     0          
O        O      0.999800000000     0.375000000000     0.467475000000     0          
O        O      0.533500000000     0.305550000000     0.415750000000     0          
O        O      0.553900000000     0.303900000000     0.250000000000     0          
O        O      0.964200000000     0.285800000000     0.473025000000     0          
O        O      0.689500000000     0.375000000000     0.361050000000     0          
T        Si     0.512900000000     0.317600000000     0.464000000000     0          
T        Si     0.681350000000     0.318650000000     0.375000000000     0          
O        O      0.875000000000     0.499800000000     0.467475000000     0          
O        O      0.944450000000     0.033500000000     0.415750000000     0          
O        O      0.946100000000     0.053900000000     0.250000000000     0          
O        O      0.964200000000     0.464200000000     0.473025000000     0          
O        O      0.875000000000     0.189500000000     0.361050000000     0          
T        Si     0.932400000000     0.012900000000     0.464000000000     0          
T        Si     0.931350000000     0.181350000000     0.375000000000     0          
O        O      0.500200000000     0.125000000000     0.282525000000     0          
O        O      0.966500000000     0.055550000000     0.334250000000     0          
O        O      0.535800000000     0.035800000000     0.276975000000     0          
O        O      0.810500000000     0.125000000000     0.388950000000     0          
T        Si     0.987100000000     0.067600000000     0.286000000000     0          
O        O      0.625000000000     0.000200000000     0.282525000000     0          
O        O      0.694450000000     0.466500000000     0.334250000000     0          
O        O      0.714200000000     0.035800000000     0.276975000000     0          
O        O      0.625000000000     0.310500000000     0.388950000000     0          
T        Si     0.682400000000     0.487100000000     0.286000000000     0          
O        O      0.749800000000     0.125000000000     0.282525000000     0          
O        O      0.783500000000     0.194450000000     0.334250000000     0          
O        O      0.714200000000     0.214200000000     0.276975000000     0          
O        O      0.939500000000     0.125000000000     0.388950000000     0          
T        Si     0.762900000000     0.182400000000     0.286000000000     0          
O        O      0.625000000000     0.249800000000     0.282525000000     0          
O        O      0.555550000000     0.283500000000     0.334250000000     0          
O        O      0.535800000000     0.214200000000     0.276975000000     0          
O        O      0.625000000000     0.439500000000     0.388950000000     0          
T        Si     0.567600000000     0.262900000000     0.286000000000     0          
O        O      0.783500000000     0.055550000000     0.334250000000     0          
O        O      0.803900000000     0.053900000000     0.250000000000     0          
T        Si     0.762900000000     0.067600000000     0.286000000000     0          
T        Si     0.931350000000     0.068650000000     0.375000000000     0          
O        O      0.694450000000     0.283500000000     0.334250000000     0          
O        O      0.696100000000     0.303900000000     0.250000000000     0          
T        Si     0.682400000000     0.262900000000     0.286000000000     0          
T        Si     0.681350000000     0.431350000000     0.375000000000     0          
O        O      0.966500000000     0.194450000000     0.334250000000     0          
O        O      0.946100000000     0.196100000000     0.250000000000     0          
T        Si     0.987100000000     0.182400000000     0.286000000000     0          
T        Si     0.818650000000     0.181350000000     0.375000000000     0          
O        O      0.555550000000     0.466500000000     0.334250000000     0          
O        O      0.553900000000     0.446100000000     0.250000000000     0          
T        Si     0.567600000000     0.487100000000     0.286000000000     0          
T        Si     0.568650000000     0.318650000000     0.375000000000     0          
O        O      0.533500000000     0.444450000000     0.415750000000     0          
T        Si     0.512900000000     0.432400000000     0.464000000000     0          
O        O      0.805550000000     0.033500000000     0.415750000000     0          
T        Si     0.817600000000     0.012900000000     0.464000000000     0          
O        O      0.716500000000     0.305550000000     0.415750000000     0          
T        Si     0.737100000000     0.317600000000     0.464000000000     0          
O        O      0.944450000000     0.216500000000     0.415750000000     0          
T        Si     0.932400000000     0.237100000000     0.464000000000     0          
O        O      0.750200000000     0.375000000000     0.717475000000     0          
O        O      0.716500000000     0.444450000000     0.665750000000     0          
O        O      0.696100000000     0.446100000000     0.500000000000     0          
O        O      0.785800000000     0.464200000000     0.723025000000     0          
O        O      0.560500000000     0.375000000000     0.611050000000     0          
T        Si     0.737100000000     0.432400000000     0.714000000000     0          
T        Si     0.568650000000     0.431350000000     0.625000000000     0          
O        O      0.875000000000     0.250200000000     0.717475000000     0          
O        O      0.805550000000     0.216500000000     0.665750000000     0          
O        O      0.803900000000     0.196100000000     0.500000000000     0          
O        O      0.785800000000     0.285800000000     0.723025000000     0          
O        O      0.875000000000     0.060500000000     0.611050000000     0          
T        Si     0.817600000000     0.237100000000     0.714000000000     0          
T        Si     0.818650000000     0.068650000000     0.625000000000     0          
O        O      0.999800000000     0.375000000000     0.717475000000     0          
O        O      0.533500000000     0.305550000000     0.665750000000     0          
O        O      0.553900000000     0.303900000000     0.500000000000     0          
O        O      0.964200000000     0.285800000000     0.723025000000     0          
O        O      0.689500000000     0.375000000000     0.611050000000     0          
T        Si     0.512900000000     0.317600000000     0.714000000000     0          
T        Si     0.681350000000     0.318650000000     0.625000000000     0          
O        O      0.875000000000     0.499800000000     0.717475000000     0          
O        O      0.944450000000     0.033500000000     0.665750000000     0          
O        O      0.946100000000     0.053900000000     0.500000000000     0          
O        O      0.964200000000     0.464200000000     0.723025000000     0          
O        O      0.875000000000     0.189500000000     0.611050000000     0          
T        Si     0.932400000000     0.012900000000     0.714000000000     0          
T        Si     0.931350000000     0.181350000000     0.625000000000     0          
O        O      0.500200000000     0.125000000000     0.532525000000     0          
O        O      0.966500000000     0.055550000000     0.584250000000     0          
O        O      0.535800000000     0.035800000000     0.526975000000     0          
O        O      0.810500000000     0.125000000000     0.638950000000     0          
T        Si     0.987100000000     0.067600000000     0.536000000000     0          
O        O      0.625000000000     0.000200000000     0.532525000000     0          
O        O      0.694450000000     0.466500000000     0.584250000000     0          
O        O      0.714200000000     0.035800000000     0.526975000000     0          
O        O      0.625000000000     0.310500000000     0.638950000000     0          
T        Si     0.682400000000     0.487100000000     0.536000000000     0          
O        O      0.749800000000     0.125000000000     0.532525000000     0          
O        O      0.783500000000     0.194450000000     0.584250000000     0          
O        O      0.714200000000     0.214200000000     0.526975000000     0          
O        O      0.939500000000     0.125000000000     0.638950000000     0          
T        Si     0.762900000000     0.182400000000     0.536000000000     0          
O        O      0.625000000000     0.249800000000     0.532525000000     0          
O        O      0.555550000000     0.283500000000     0.584250000000     0          
O        O      0.535800000000     0.214200000000     0.526975000000     0          
O        O      0.625000000000     0.439500000000     0.638950000000     0          
T        Si     0.567600000000     0.262900000000     0.536000000000     0          
O        O      0.783500000000     0.055550000000     0.584250000000     0          
O        O      0.803900000000     0.053900000000     0.500000000000     0          
T        Si     0.762900000000     0.067600000000     0.536000000000     0          
T        Si     0.931350000000     0.068650000000     0.625000000000     0          
O        O      0.694450000000     0.283500000000     0.584250000000     0          
O        O      0.696100000000     0.303900000000     0.500000000000     0          
T        Si     0.682400000000     0.262900000000     0.536000000000     0          
T        Si     0.681350000000     0.431350000000     0.625000000000     0          
O        O      0.966500000000     0.194450000000     0.584250000000     0          
O        O      0.946100000000     0.196100000000     0.500000000000     0          
T        Si     0.987100000000     0.182400000000     0.536000000000     0          
T        Si     0.818650000000     0.181350000000     0.625000000000     0          
O        O      0.555550000000     0.466500000000     0.584250000000     0          
O        O      0.553900000000     0.446100000000     0.500000000000     0          
T        Si     0.567600000000     0.487100000000     0.536000000000     0          
T        Si     0.568650000000     0.318650000000     0.625000000000     0          
O        O      0.533500000000     0.444450000000     0.665750000000     0          
T        Si     0.512900000000     0.432400000000     0.714000000000     0          
O        O      0.805550000000     0.033500000000     0.665750000000     0          
T        Si     0.817600000000     0.012900000000     0.714000000000     0          
O        O      0.716500000000     0.305550000000     0.665750000000     0          
T        Si     0.737100000000     0.317600000000     0.714000000000     0          
O        O      0.944450000000     0.216500000000     0.665750000000     0          
T        Si     0.932400000000     0.237100000000     0.714000000000     0          
O        O      0.750200000000     0.375000000000     0.967475000000     0          
O        O      0.716500000000     0.444450000000     0.915750000000     0          
O        O      0.696100000000     0.446100000000     0.750000000000     0          
O        O      0.785800000000     0.464200000000     0.973025000000     0          
O        O      0.560500000000     0.375000000000     0.861050000000     0          
T        Si     0.737100000000     0.432400000000     0.964000000000     0          
T        Si     0.568650000000     0.431350000000     0.875000000000     0          
O        O      0.875000000000     0.250200000000     0.967475000000     0          
O        O      0.805550000000     0.216500000000     0.915750000000     0          
O        O      0.803900000000     0.196100000000     0.750000000000     0          
O        O      0.785800000000     0.285800000000     0.973025000000     0          
O        O      0.875000000000     0.060500000000     0.861050000000     0          
T        Si     0.817600000000     0.237100000000     0.964000000000     0          
T        Si     0.818650000000     0.068650000000     0.875000000000     0          
O        O      0.999800000000     0.375000000000     0.967475000000     0          
O        O      0.533500000000     0.305550000000     0.915750000000     0          
O        O      0.553900000000     0.303900000000     0.750000000000     0          
O        O      0.964200000000     0.285800000000     0.973025000000     0          
O        O      0.689500000000     0.375000000000     0.861050000000     0          
T        Si     0.512900000000     0.317600000000     0.964000000000     0          
T        Si     0.681350000000     0.318650000000     0.875000000000     0          
O        O      0.875000000000     0.499800000000     0.967475000000     0          
O        O      0.944450000000     0.033500000000     0.915750000000     0          
O        O      0.946100000000     0.053900000000     0.750000000000     0          
O        O      0.964200000000     0.464200000000     0.973025000000     0          
O        O      0.875000000000     0.189500000000     0.861050000000     0          
T        Si     0.932400000000     0.012900000000     0.964000000000     0          
T        Si     0.931350000000     0.181350000000     0.875000000000     0          
O        O      0.500200000000     0.125000000000     0.782525000000     0          
O        O      0.966500000000     0.055550000000     0.834250000000     0          
O        O      0.535800000000     0.035800000000     0.776975000000     0          
O        O      0.810500000000     0.125000000000     0.888950000000     0          
T        Si     0.987100000000     0.067600000000     0.786000000000     0          
O        O      0.625000000000     0.000200000000     0.782525000000     0          
O        O      0.694450000000     0.466500000000     0.834250000000     0          
O        O      0.714200000000     0.035800000000     0.776975000000     0          
O        O      0.625000000000     0.310500000000     0.888950000000     0          
T        Si     0.682400000000     0.487100000000     0.786000000000     0          
O        O      0.749800000000     0.125000000000     0.782525000000     0          
O        O      0.783500000000     0.194450000000     0.834250000000     0          
O        O      0.714200000000     0.214200000000     0.776975000000     0          
O        O      0.939500000000     0.125000000000     0.888950000000     0          
T        Si     0.762900000000     0.182400000000     0.786000000000     0          
O        O      0.625000000000     0.249800000000     0.782525000000     0          
O        O      0.555550000000     0.283500000000     0.834250000000     0          
O        O      0.535800000000     0.214200000000     0.776975000000     0          
O        O      0.625000000000     0.439500000000     0.888950000000     0          
T        Si     0.567600000000     0.262900000000     0.786000000000     0          
O        O      0.783500000000     0.055550000000     0.834250000000     0          
O        O      0.803900000000     0.053900000000     0.750000000000     0          
T        Si     0.762900000000     0.067600000000     0.786000000000     0          
T        Si     0.931350000000     0.068650000000     0.875000000000     0          
O        O      0.694450000000     0.283500000000     0.834250000000     0          
O        O      0.696100000000     0.303900000000     0.750000000000     0          
T        Si     0.682400000000     0.262900000000     0.786000000000     0          
T        Si     0.681350000000     0.431350000000     0.875000000000     0          
O        O      0.966500000000     0.194450000000     0.834250000000     0          
O        O      0.946100000000     0.196100000000     0.750000000000     0          
T        Si     0.987100000000     0.182400000000     0.786000000000     0          
T        Si     0.818650000000     0.181350000000     0.875000000000     0          
O        O      0.555550000000     0.466500000000     0.834250000000     0          
O        O      0.553900000000     0.446100000000     0.750000000000     0          
T        Si     0.567600000000     0.487100000000     0.786000000000     0          
T        Si     0.568650000000     0.318650000000     0.875000000000     0          
O        O      0.533500000000     0.444450000000     0.915750000000     0          
T        Si     0.512900000000     0.432400000000     0.964000000000     0          
O        O      0.805550000000     0.033500000000     0.915750000000     0          
T        Si     0.817600000000     0.012900000000     0.964000000000     0          
O        O      0.716500000000     0.305550000000     0.915750000000     0          
T        Si     0.737100000000     0.317600000000     0.964000000000     0          
O        O      0.944450000000     0.216500000000     0.915750000000     0          
T        Si     0.932400000000     0.237100000000     0.964000000000     0          
O        O      0.750200000000     0.875000000000     0.217475000000     0          
O        O      0.716500000000     0.944450000000     0.165750000000     0          
O        O      0.696100000000     0.946100000000     0.000000000000     0          
O        O      0.785800000000     0.964200000000     0.223025000000     0          
O        O      0.560500000000     0.875000000000     0.111050000000     0          
T        Si     0.737100000000     0.932400000000     0.214000000000     0          
T        Si     0.568650000000     0.931350000000     0.125000000000     0          
O        O      0.875000000000     0.750200000000     0.217475000000     0          
O        O      0.805550000000     0.716500000000     0.165750000000     0          
O        O      0.803900000000     0.696100000000     0.000000000000     0          
O        O      0.785800000000     0.785800000000     0.223025000000     0          
O        O      0.875000000000     0.560500000000     0.111050000000     0          
T        Si     0.817600000000     0.737100000000     0.214000000000     0          
T        Si     0.818650000000     0.568650000000     0.125000000000     0          
O        O      0.999800000000     0.875000000000     0.217475000000     0          
O        O      0.533500000000     0.805550000000     0.165750000000     0          
O        O      0.553900000000     0.803900000000     0.000000000000     0          
O        O      0.964200000000     0.785800000000     0.223025000000     0          
O        O      0.689500000000     0.875000000000     0.111050000000     0          
T        Si     0.512900000000     0.817600000000     0.214000000000     0          
T        Si     0.681350000000     0.818650000000     0.125000000000     0          
O        O      0.875000000000     0.999800000000     0.217475000000     0          
O        O      0.944450000000     0.533500000000     0.165750000000     0          
O        O      0.946100000000     0.553900000000     0.000000000000     0          
O        O      0.964200000000     0.964200000000     0.223025000000     0          
O        O      0.875000000000     0.689500000000     0.111050000000     0          
T        Si     0.932400000000     0.512900000000     0.214000000000     0          
T        Si     0.931350000000     0.681350000000     0.125000000000     0          
O        O      0.500200000000     0.625000000000     0.032525000000     0          
O        O      0.966500000000     0.555550000000     0.084250000000     0          
O        O      0.535800000000     0.535800000000     0.026975000000     0          
O        O      0.810500000000     0.625000000000     0.138950000000     0          
T        Si     0.987100000000     0.567600000000     0.036000000000     0          
O        O      0.625000000000     0.500200000000     0.032525000000     0          
O        O      0.694450000000     0.966500000000     0.084250000000     0          
O        O      0.714200000000     0.535800000000     0.026975000000     0          
O        O      0.625000000000     0.810500000000     0.138950000000     0          
T        Si     0.682400000000     0.987100000000     0.036000000000     0          
O        O      0.749800000000     0.625000000000     0.032525000000     0          
O        O      0.783500000000     0.694450000000     0.084250000000     0          
O        O      0.714200000000     0.714200000000     0.026975000000     0          
O        O      0.939500000000     0.625000000000     0.138950000000     0          
T        Si     0.762900000000     0.682400000000     0.036000000000     0          
O        O      0.625000000000     0.749800000000     0.032525000000     0          
O        O      0.555550000000     0.783500000000     0.084250000000     0          
O        O      0.535800000000     0.714200000000     0.026975000000     0          
O        O      0.625000000000     0.939500000000     0.138950000000     0          
T        Si     0.567600000000     0.762900000000     0.036000000000     0          
O        O      0.783500000000     0.555550000000     0.084250000000     0          
O        O      0.803900000000     0.553900000000     0.000000000000     0          
T        Si     0.762900000000     0.567600000000     0.036000000000     0          
T        Si     0.931350000000     0.568650000000     0.125000000000     0          
O        O      0.694450000000     0.783500000000     0.084250000000     0          
O        O      0.696100000000     0.803900000000     0.000000000000     0          
T        Si     0.682400000000     0.762900000000     0.036000000000     0          
T        Si     0.681350000000     0.931350000000     0.125000000000     0          
O        O      0.966500000000     0.694450000000     0.084250000000     0          
O        O      0.946100000000     0.696100000000     0.000000000000     0          
T        Si     0.987100000000     0.682400000000     0.036000000000     0          
T        Si     0.818650000000     0.681350000000     0.125000000000     0          
O        O      0.555550000000     0.966500000000     0.084250000000     0          
O        O      0.553900000000     0.946100000000     0.000000000000     0          
T        Si     0.567600000000     0.987100000000     0.036000000000     0          
T        Si     0.568650000000     0.818650000000     0.125000000000     0          
O        O      0.533500000000     0.944450000000     0.165750000000     0          
T        Si     0.512900000000     0.932400000000     0.214000000000     0          
O        O      0.805550000000     0.533500000000     0.165750000000     0          
T        Si     0.817600000000     0.512900000000     0.214000000000     0          
O        O      0.716500000000     0.805550000000     0.165750000000     0          
T        Si     0.737100000000     0.817600000000     0.214000000000     0          
O        O      0.944450000000     0.716500000000     0.165750000000     0          
T        Si     0.932400000000     0.737100000000     0.214000000000     0          
O        O      0.750200000000     0.875000000000     0.467475000000     0          
O        O      0.716500000000     0.944450000000     0.415750000000     0          
O        O      0.696100000000     0.946100000000     0.250000000000     0          
O        O      0.785800000000     0.964200000000     0.473025000000     0          
O        O      0.560500000000     0.875000000000     0.361050000000     0          
T        Si     0.737100000000     0.932400000000     0.464000000000     0          
T        Si     0.568650000000     0.931350000000     0.375000000000     0          
O        O      0.875000000000     0.750200000000     0.467475000000     0          
O        O      0.805550000000     0.716500000000     0.415750000000     0          
O        O      0.803900000000     0.696100000000     0.250000000000     0          
O        O      0.785800000000     0.785800000000     0.473025000000     0          
O        O      0.875000000000     0.560500000000     0.361050000000     0          
T        Si     0.817600000000     0.737100000000     0.464000000000     0          
T        Si     0.818650000000     0.568650000000     0.375000000000     0          
O        O      0.999800000000     0.875000000000     0.467475000000     0          
O        O      0.533500000000     0.805550000000     0.415750000000     0          
O        O      0.553900000000     0.803900000000     0.250000000000     0          
O        O      0.964200000000     0.785800000000     0.473025000000     0          
O        O      0.689500000000     0.875000000000     0.361050000000     0          
T        Si     0.512900000000     0.817600000000     0.464000000000     0          
T        Si     0.681350000000     0.818650000000     0.375000000000     0          
O        O      0.875000000000     0.999800000000     0.467475000000     0          
O        O      0.944450000000     0.533500000000     0.415750000000     0          
O        O      0.946100000000     0.553900000000     0.250000000000     0          
O        O      0.964200000000     0.964200000000     0.473025000000     0          
O        O      0.875000000000     0.689500000000     0.361050000000     0          
T        Si     0.932400000000     0.512900000000     0.464000000000     0          
T        Si     0.931350000000     0.681350000000     0.375000000000     0          
O        O      0.500200000000     0.625000000000     0.282525000000     0          
O        O      0.966500000000     0.555550000000     0.334250000000     0          
O        O      0.535800000000     0.535800000000     0.276975000000     0          
O        O      0.810500000000     0.625000000000     0.388950000000     0          
T        Si     0.987100000000     0.567600000000     0.286000000000     0          
O        O      0.625000000000     0.500200000000     0.282525000000     0          
O        O      0.694450000000     0.966500000000     0.334250000000     0          
O        O      0.714200000000     0.535800000000     0.276975000000     0          
O        O      0.625000000000     0.810500000000     0.388950000000     0          
T        Si     0.682400000000     0.987100000000     0.286000000000     0          
O        O      0.749800000000     0.625000000000     0.282525000000     0          
O        O      0.783500000000     0.694450000000     0.334250000000     0          
O        O      0.714200000000     0.714200000000     0.276975000000     0          
O        O      0.939500000000     0.625000000000     0.388950000000     0          
T        Si     0.762900000000     0.682400000000     0.286000000000     0          
O        O      0.625000000000     0.749800000000     0.282525000000     0          
O        O      0.555550000000     0.783500000000     0.334250000000     0          
O        O      0.535800000000     0.714200000000     0.276975000000     0          
O        O      0.625000000000     0.939500000000     0.388950000000     0          
T        Si     0.567600000000     0.762900000000     0.286000000000     0          
O        O      0.783500000000     0.555550000000     0.334250000000     0          
O        O      0.803900000000     0.553900000000     0.250000000000     0          
T        Si     0.762900000000     0.567600000000     0.286000000000     0          
T        Si     0.931350000000     0.568650000000     0.375000000000     0          
O        O      0.694450000000     0.783500000000     0.334250000000     0          
O        O      0.696100000000     0.803900000000     0.250000000000     0          
T        Si     0.682400000000     0.762900000000     0.286000000000     0          
T        Si     0.681350000000     0.931350000000     0.375000000000     0          
O        O      0.966500000000     0.694450000000     0.334250000000     0          
O        O      0.946100000000     0.696100000000     0.250000000000     0          
T        Si     0.987100000000     0.682400000000     0.286000000000     0          
T        Si     0.818650000000     0.681350000000     0.375000000000     0          
O        O      0.555550000000     0.966500000000     0.334250000000     0          
O        O      0.553900000000     0.946100000000     0.250000000000     0          
T        Si     0.567600000000     0.987100000000     0.286000000000     0          
T        Si     0.568650000000     0.818650000000     0.375000000000     0          
O        O      0.533500000000     0.944450000000     0.415750000000     0          
T        Si     0.512900000000     0.932400000000     0.464000000000     0          
O        O      0.805550000000     0.533500000000     0.415750000000     0          
T        Si     0.817600000000     0.512900000000     0.464000000000     0          
O        O      0.716500000000     0.805550000000     0.415750000000     0          
T        Si     0.737100000000     0.817600000000     0.464000000000     0          
O        O      0.944450000000     0.716500000000     0.415750000000     0          
T        Si     0.932400000000     0.737100000000     0.464000000000     0          
O        O      0.750200000000     0.875000000000     0.717475000000     0          
O        O      0.716500000000     0.944450000000     0.665750000000     0          
O        O      0.696100000000     0.946100000000     0.500000000000     0          
O        O      0.785800000000     0.964200000000     0.723025000000     0          
O        O      0.560500000000     0.875000000000     0.611050000000     0          
T        Si     0.737100000000     0.932400000000     0.714000000000     0          
T        Si     0.568650000000     0.931350000000     0.625000000000     0          
O        O      0.875000000000     0.750200000000     0.717475000000     0          
O        O      0.805550000000     0.716500000000     0.665750000000     0          
O        O      0.803900000000     0.696100000000     0.500000000000     0          
O        O      0.785800000000     0.785800000000     0.723025000000     0          
O        O      0.875000000000     0.560500000000     0.611050000000     0          
T        Si     0.817600000000     0.737100000000     0.714000000000     0          
T        Si     0.818650000000     0.568650000000     0.625000000000     0          
O        O      0.999800000000     0.875000000000     0.717475000000     0          
O        O      0.533500000000     0.805550000000     0.665750000000     0          
O        O      0.553900000000     0.803900000000     0.500000000000     0          
O        O      0.964200000000     0.785800000000     0.723025000000     0          
O        O      0.689500000000     0.875000000000     0.611050000000     0          
T        Si     0.512900000000     0.817600000000     0.714000000000     0          
T        Si     0.681350000000     0.818650000000     0.625000000000     0          
O        O      0.875000000000     0.999800000000     0.717475000000     0          
O        O      0.944450000000     0.533500000000     0.665750000000     0          
O        O      0.946100000000     0.553900000000     0.500000000000     0          
O        O      0.964200000000     0.964200000000     0.723025000000     0          
O        O      0.875000000000     0.689500000000     0.611050000000     0          
T        Si     0.932400000000     0.512900000000     0.714000000000     0          
T        Si     0.931350000000     0.681350000000     0.625000000000     0          
O        O      0.500200000000     0.625000000000     0.532525000000     0          
O        O      0.966500000000     0.555550000000     0.584250000000     0          
O        O      0.535800000000     0.535800000000     0.526975000000     0          
O        O      0.810500000000     0.625000000000     0.638950000000     0          
T        Si     0.987100000000     0.567600000000     0.536000000000     0          
O        O      0.625000000000     0.500200000000     0.532525000000     0          
O        O      0.694450000000     0.966500000000     0.584250000000     0          
O        O      0.714200000000     0.535800000000     0.526975000000     0          
O        O      0.625000000000     0.810500000000     0.638950000000     0          
T        Si     0.682400000000     0.987100000000     0.536000000000     0          
O        O      0.749800000000     0.625000000000     0.532525000000     0          
O        O      0.783500000000     0.694450000000     0.584250000000     0          
O        O      0.714200000000     0.714200000000     0.526975000000     0          
O        O      0.939500000000     0.625000000000     0.638950000000     0          
T        Si     0.762900000000     0.682400000000     0.536000000000     0          
O        O      0.625000000000     0.749800000000     0.532525000000     0          
O        O      0.555550000000     0.783500000000     0.584250000000     0          
O        O      0.535800000000     0.714200000000     0.526975000000     0          
O        O      0.625000000000     0.939500000000     0.638950000000     0          
T        Si     0.567600000000     0.762900000000     0.536000000000     0          
O        O      0.783500000000     0.555550000000     0.584250000000     0          
O        O      0.803900000000     0.553900000000     0.500000000000     0          
T        Si     0.762900000000     0.567600000000     0.536000000000     0          
T        Si     0.931350000000     0.568650000000     0.625000000000     0          
O        O      0.694450000000     0.783500000000     0.584250000000     0          
O        O      0.696100000000     0.803900000000     0.500000000000     0          
T        Si     0.682400000000     0.762900000000     0.536000000000     0          
T        Si     0.681350000000     0.931350000000     0.625000000000     0          
O        O      0.966500000000     0.694450000000     0.584250000000     0          
O        O      0.946100000000     0.696100000000     0.500000000000     0          
T        Si     0.987100000000     0.682400000000     0.536000000000     0          
T        Si     0.818650000000     0.681350000000     0.625000000000     0          
O        O      0.555550000000     0.966500000000     0.584250000000     0          
O        O      0.553900000000     0.946100000000     0.500000000000     0          
T        Si     0.567600000000     0.987100000000     0.536000000000     0          
T        Si     0.568650000000     0.818650000000     0.625000000000     0          
O        O      0.533500000000     0.944450000000     0.665750000000     0          
T        Si     0.512900000000     0.932400000000     0.714000000000     0          
O        O      0.805550000000     0.533500000000     0.665750000000     0          
T        Si     0.817600000000     0.512900000000     0.714000000000     0          
O        O      0.716500000000     0.805550000000     0.665750000000     0          
T        Si     0.737100000000     0.817600000000     0.714000000000     0          
O        O      0.944450000000     0.716500000000     0.665750000000     0          
T        Si     0.932400000000     0.737100000000     0.714000000000     0          
O        O      0.750200000000     0.875000000000     0.967475000000     0          
O        O      0.716500000000     0.944450000000     0.915750000000     0          
O        O      0.696100000000     0.946100000000     0.750000000000     0          
O        O      0.785800000000     0.964200000000     0.973025000000     0          
O        O      0.560500000000     0.875000000000     0.861050000000     0          
T        Si     0.737100000000     0.932400000000     0.964000000000     0          
T        Si     0.568650000000     0.931350000000     0.875000000000     0          
O        O      0.875000000000     0.750200000000     0.967475000000     0          
O        O      0.805550000000     0.716500000000     0.915750000000     0          
O        O      0.803900000000     0.696100000000     0.750000000000     0          
O        O      0.785800000000     0.785800000000     0.973025000000     0          
O        O      0.875000000000     0.560500000000     0.861050000000     0          
T        Si     0.817600000000     0.737100000000     0.964000000000     0          
T        Si     0.818650000000     0.568650000000     0.875000000000     0          
O        O      0.999800000000     0.875000000000     0.967475000000     0          
O        O      0.533500000000     0.805550000000     0.915750000000     0          
O        O      0.553900000000     0.803900000000     0.750000000000     0          
O        O      0.964200000000     0.785800000000     0.973025000000     0          
O        O      0.689500000000     0.875000000000     0.861050000000     0          
T        Si     0.512900000000     0.817600000000     0.964000000000     0          
T        Si     0.681350000000     0.818650000000     0.875000000000     0          
O        O      0.875000000000     0.999800000000     0.967475000000     0          
O        O      0.944450000000     0.533500000000     0.915750000000     0          
O        O      0.946100000000     0.553900000000     0.750000000000     0          
O        O      0.964200000000     0.964200000000     0.973025000000     0          
O        O      0.875000000000     0.689500000000     0.861050000000     0          
T        Si     0.932400000000     0.512900000000     0.964000000000     0          
T        Si     0.931350000000     0.681350000000     0.875000000000     0          
O        O      0.500200000000     0.625000000000     0.782525000000     0          
O        O      0.966500000000     0.555550000000     0.834250000000     0          
O        O      0.535800000000     0.535800000000     0.776975000000     0          
O        O      0.810500000000     0.625000000000     0.888950000000     0          
T        Si     0.987100000000     0.567600000000     0.786000000000     0          
O        O      0.625000000000     0.500200000000     0.782525000000     0          
O        O      0.694450000000     0.966500000000     0.834250000000     0          
O        O      0.714200000000     0.535800000000     0.776975000000     0          
O        O      0.625000000000     0.810500000000     0.888950000000     0          
T        Si     0.682400000000     0.987100000000     0.786000000000     0          
O        O      0.749800000000     0.625000000000     0.782525000000     0          
O        O      0.783500000000     0.694450000000     0.834250000000     0          
O        O      0.714200000000     0.714200000000     0.776975000000     0          
O        O      0.939500000000     0.625000000000     0.888950000000     0          
T        Si     0.762900000000     0.682400000000     0.786000000000     0          
O        O      0.625000000000     0.749800000000     0.782525000000     0          
O        O      0.555550000000     0.783500000000     0.834250000000     0          
O        O      0.535800000000     0.714200000000     0.776975000000     0          
O        O      0.625000000000     0.939500000000     0.888950000000     0          
T        Si     0.567600000000     0.762900000000     0.786000000000     0          
O        O      0.783500000000     0.555550000000     0.834250000000     0          
O        O      0.803900000000     0.553900000000     0.750000000000     0          
T        Si     0.762900000000     0.567600000000     0.786000000000     0          
T        Si     0.931350000000     0.568650000000     0.875000000000     0          
O        O      0.694450000000     0.783500000000     0.834250000000     0          
O        O      0.696100000000     0.803900000000     0.750000000000     0          
T        Si     0.682400000000     0.762900000000     0.786000000000     0          
T        Si     0.681350000000     0.931350000000     0.875000000000     0          
O        O      0.966500000000     0.694450000000     0.834250000000     0          
O        O      0.946100000000     0.696100000000     0.750000000000     0          
T        Si     0.987100000000     0.682400000000     0.786000000000     0          
T        Si     0.818650000000     0.681350000000     0.875000000000     0          
O        O      0.555550000000     0.966500000000     0.834250000000     0          
O        O      0.553900000000     0.946100000000     0.750000000000     0          
T        Si     0.567600000000     0.987100000000     0.786000000000     0          
T        Si     0.568650000000     0.818650000000     0.875000000000     0          
O        O      0.533500000000     0.944450000000     0.915750000000     0          
T        Si     0.512900000000     0.932400000000     0.964000000000     0          
O        O      0.805550000000     0.533500000000     0.915750000000     0          
T        Si     0.817600000000     0.512900000000     0.964000000000     0          
O        O      0.716500000000     0.805550000000     0.915750000000     0          
T        Si     0.737100000000     0.817600000000     0.964000000000     0          
O        O      0.944450000000     0.716500000000     0.915750000000     0          
T        Si     0.932400000000     0.737100000000     0.964000000000     0          


