data_zeolite

_audit_creation_method RASPA-1.0
_audit_creation_date 2021-6-6
_audit_author_name ''

_cell_length_a    21.555
_cell_length_b    8.761
_cell_length_c    9.304
_cell_angle_alpha 90
_cell_angle_beta  91.55
_cell_angle_gamma 90
_cell_volume      31614.4

_symmetry_cell_setting          monoclinic
_symmetry_space_group_name_Hall 'P 1'
_symmetry_space_group_name_H-M  'P 1'
_symmetry_Int_Tables_number     1

_symmetry_equiv_pos_as_xyz 'x,y,z'

loop_
_atom_site_label
_atom_site_type_symbol
_atom_site_fract_x
_atom_site_fract_y
_atom_site_fract_z
_atom_site_charge
T        Si     0.033650000000     0.061066666667     0.096533333333     0          
T        Si     0.119900000000     0.002566666667     0.154033333333     0          
T        Si     0.099950000000     0.105400000000     0.095266666667     0          
T        Si     0.058050000000     0.028133333333     0.200200000000     0          
T        Si     0.466350000000     0.061066666667     0.070133333333     0          
T        Si     0.380100000000     0.002566666667     0.012633333333     0          
T        Si     0.400050000000     0.105400000000     0.071400000000     0          
T        Si     0.441950000000     0.028133333333     0.299800000000     0          
T        Si     0.466350000000     0.272266666667     0.236800000000     0          
T        Si     0.380100000000     0.330766666667     0.179300000000     0          
T        Si     0.400050000000     0.227933333333     0.238066666667     0          
T        Si     0.441950000000     0.305200000000     0.133133333333     0          
T        Si     0.033650000000     0.272266666667     0.263200000000     0          
T        Si     0.119900000000     0.330766666667     0.320700000000     0          
T        Si     0.099950000000     0.227933333333     0.261933333333     0          
T        Si     0.058050000000     0.305200000000     0.033533333333     0          
T        Si     0.283650000000     0.227733333333     0.096533333333     0          
T        Si     0.369900000000     0.169233333333     0.154033333333     0          
T        Si     0.349950000000     0.272066666667     0.095266666667     0          
T        Si     0.308050000000     0.194800000000     0.200200000000     0          
T        Si     0.216350000000     0.227733333333     0.070133333333     0          
T        Si     0.130100000000     0.169233333333     0.012633333333     0          
T        Si     0.150050000000     0.272066666667     0.071400000000     0          
T        Si     0.191950000000     0.194800000000     0.299800000000     0          
T        Si     0.216350000000     0.105600000000     0.236800000000     0          
T        Si     0.130100000000     0.164100000000     0.179300000000     0          
T        Si     0.150050000000     0.061266666667     0.238066666667     0          
T        Si     0.191950000000     0.138533333333     0.133133333333     0          
T        Si     0.283650000000     0.105600000000     0.263200000000     0          
T        Si     0.369900000000     0.164100000000     0.320700000000     0          
T        Si     0.349950000000     0.061266666667     0.261933333333     0          
T        Si     0.308050000000     0.138533333333     0.033533333333     0          
T        Si     0.033650000000     0.061066666667     0.429866666667     0          
T        Si     0.119900000000     0.002566666667     0.487366666667     0          
T        Si     0.099950000000     0.105400000000     0.428600000000     0          
T        Si     0.058050000000     0.028133333333     0.533533333333     0          
T        Si     0.466350000000     0.061066666667     0.403466666667     0          
T        Si     0.380100000000     0.002566666667     0.345966666667     0          
T        Si     0.400050000000     0.105400000000     0.404733333333     0          
T        Si     0.441950000000     0.028133333333     0.633133333333     0          
T        Si     0.466350000000     0.272266666667     0.570133333333     0          
T        Si     0.380100000000     0.330766666667     0.512633333333     0          
T        Si     0.400050000000     0.227933333333     0.571400000000     0          
T        Si     0.441950000000     0.305200000000     0.466466666667     0          
T        Si     0.033650000000     0.272266666667     0.596533333333     0          
T        Si     0.119900000000     0.330766666667     0.654033333333     0          
T        Si     0.099950000000     0.227933333333     0.595266666667     0          
T        Si     0.058050000000     0.305200000000     0.366866666667     0          
T        Si     0.283650000000     0.227733333333     0.429866666667     0          
T        Si     0.369900000000     0.169233333333     0.487366666667     0          
T        Si     0.349950000000     0.272066666667     0.428600000000     0          
T        Si     0.308050000000     0.194800000000     0.533533333333     0          
T        Si     0.216350000000     0.227733333333     0.403466666667     0          
T        Si     0.130100000000     0.169233333333     0.345966666667     0          
T        Si     0.150050000000     0.272066666667     0.404733333333     0          
T        Si     0.191950000000     0.194800000000     0.633133333333     0          
T        Si     0.216350000000     0.105600000000     0.570133333333     0          
T        Si     0.130100000000     0.164100000000     0.512633333333     0          
T        Si     0.150050000000     0.061266666667     0.571400000000     0          
T        Si     0.191950000000     0.138533333333     0.466466666667     0          
T        Si     0.283650000000     0.105600000000     0.596533333333     0          
T        Si     0.369900000000     0.164100000000     0.654033333333     0          
T        Si     0.349950000000     0.061266666667     0.595266666667     0          
T        Si     0.308050000000     0.138533333333     0.366866666667     0          
T        Si     0.033650000000     0.061066666667     0.763200000000     0          
T        Si     0.119900000000     0.002566666667     0.820700000000     0          
T        Si     0.099950000000     0.105400000000     0.761933333333     0          
T        Si     0.058050000000     0.028133333333     0.866866666667     0          
T        Si     0.466350000000     0.061066666667     0.736800000000     0          
T        Si     0.380100000000     0.002566666667     0.679300000000     0          
T        Si     0.400050000000     0.105400000000     0.738066666667     0          
T        Si     0.441950000000     0.028133333333     0.966466666667     0          
T        Si     0.466350000000     0.272266666667     0.903466666667     0          
T        Si     0.380100000000     0.330766666667     0.845966666667     0          
T        Si     0.400050000000     0.227933333333     0.904733333333     0          
T        Si     0.441950000000     0.305200000000     0.799800000000     0          
T        Si     0.033650000000     0.272266666667     0.929866666667     0          
T        Si     0.119900000000     0.330766666667     0.987366666667     0          
T        Si     0.099950000000     0.227933333333     0.928600000000     0          
T        Si     0.058050000000     0.305200000000     0.700200000000     0          
T        Si     0.283650000000     0.227733333333     0.763200000000     0          
T        Si     0.369900000000     0.169233333333     0.820700000000     0          
T        Si     0.349950000000     0.272066666667     0.761933333333     0          
T        Si     0.308050000000     0.194800000000     0.866866666667     0          
T        Si     0.216350000000     0.227733333333     0.736800000000     0          
T        Si     0.130100000000     0.169233333333     0.679300000000     0          
T        Si     0.150050000000     0.272066666667     0.738066666667     0          
T        Si     0.191950000000     0.194800000000     0.966466666667     0          
T        Si     0.216350000000     0.105600000000     0.903466666667     0          
T        Si     0.130100000000     0.164100000000     0.845966666667     0          
T        Si     0.150050000000     0.061266666667     0.904733333333     0          
T        Si     0.191950000000     0.138533333333     0.799800000000     0          
T        Si     0.283650000000     0.105600000000     0.929866666667     0          
T        Si     0.369900000000     0.164100000000     0.987366666667     0          
T        Si     0.349950000000     0.061266666667     0.928600000000     0          
T        Si     0.308050000000     0.138533333333     0.700200000000     0          
T        Si     0.033650000000     0.394400000000     0.096533333333     0          
T        Si     0.119900000000     0.335900000000     0.154033333333     0          
T        Si     0.099950000000     0.438733333333     0.095266666667     0          
T        Si     0.058050000000     0.361466666667     0.200200000000     0          
T        Si     0.466350000000     0.394400000000     0.070133333333     0          
T        Si     0.380100000000     0.335900000000     0.012633333333     0          
T        Si     0.400050000000     0.438733333333     0.071400000000     0          
T        Si     0.441950000000     0.361466666667     0.299800000000     0          
T        Si     0.466350000000     0.605600000000     0.236800000000     0          
T        Si     0.380100000000     0.664100000000     0.179300000000     0          
T        Si     0.400050000000     0.561266666667     0.238066666667     0          
T        Si     0.441950000000     0.638533333333     0.133133333333     0          
T        Si     0.033650000000     0.605600000000     0.263200000000     0          
T        Si     0.119900000000     0.664100000000     0.320700000000     0          
T        Si     0.099950000000     0.561266666667     0.261933333333     0          
T        Si     0.058050000000     0.638533333333     0.033533333333     0          
T        Si     0.283650000000     0.561066666667     0.096533333333     0          
T        Si     0.369900000000     0.502566666667     0.154033333333     0          
T        Si     0.349950000000     0.605400000000     0.095266666667     0          
T        Si     0.308050000000     0.528133333333     0.200200000000     0          
T        Si     0.216350000000     0.561066666667     0.070133333333     0          
T        Si     0.130100000000     0.502566666667     0.012633333333     0          
T        Si     0.150050000000     0.605400000000     0.071400000000     0          
T        Si     0.191950000000     0.528133333333     0.299800000000     0          
T        Si     0.216350000000     0.438933333333     0.236800000000     0          
T        Si     0.130100000000     0.497433333333     0.179300000000     0          
T        Si     0.150050000000     0.394600000000     0.238066666667     0          
T        Si     0.191950000000     0.471866666667     0.133133333333     0          
T        Si     0.283650000000     0.438933333333     0.263200000000     0          
T        Si     0.369900000000     0.497433333333     0.320700000000     0          
T        Si     0.349950000000     0.394600000000     0.261933333333     0          
T        Si     0.308050000000     0.471866666667     0.033533333333     0          
T        Si     0.033650000000     0.394400000000     0.429866666667     0          
T        Si     0.119900000000     0.335900000000     0.487366666667     0          
T        Si     0.099950000000     0.438733333333     0.428600000000     0          
T        Si     0.058050000000     0.361466666667     0.533533333333     0          
T        Si     0.466350000000     0.394400000000     0.403466666667     0          
T        Si     0.380100000000     0.335900000000     0.345966666667     0          
T        Si     0.400050000000     0.438733333333     0.404733333333     0          
T        Si     0.441950000000     0.361466666667     0.633133333333     0          
T        Si     0.466350000000     0.605600000000     0.570133333333     0          
T        Si     0.380100000000     0.664100000000     0.512633333333     0          
T        Si     0.400050000000     0.561266666667     0.571400000000     0          
T        Si     0.441950000000     0.638533333333     0.466466666667     0          
T        Si     0.033650000000     0.605600000000     0.596533333333     0          
T        Si     0.119900000000     0.664100000000     0.654033333333     0          
T        Si     0.099950000000     0.561266666667     0.595266666667     0          
T        Si     0.058050000000     0.638533333333     0.366866666667     0          
T        Si     0.283650000000     0.561066666667     0.429866666667     0          
T        Si     0.369900000000     0.502566666667     0.487366666667     0          
T        Si     0.349950000000     0.605400000000     0.428600000000     0          
T        Si     0.308050000000     0.528133333333     0.533533333333     0          
T        Si     0.216350000000     0.561066666667     0.403466666667     0          
T        Si     0.130100000000     0.502566666667     0.345966666667     0          
T        Si     0.150050000000     0.605400000000     0.404733333333     0          
T        Si     0.191950000000     0.528133333333     0.633133333333     0          
T        Si     0.216350000000     0.438933333333     0.570133333333     0          
T        Si     0.130100000000     0.497433333333     0.512633333333     0          
T        Si     0.150050000000     0.394600000000     0.571400000000     0          
T        Si     0.191950000000     0.471866666667     0.466466666667     0          
T        Si     0.283650000000     0.438933333333     0.596533333333     0          
T        Si     0.369900000000     0.497433333333     0.654033333333     0          
T        Si     0.349950000000     0.394600000000     0.595266666667     0          
T        Si     0.308050000000     0.471866666667     0.366866666667     0          
T        Si     0.033650000000     0.394400000000     0.763200000000     0          
T        Si     0.119900000000     0.335900000000     0.820700000000     0          
T        Si     0.099950000000     0.438733333333     0.761933333333     0          
T        Si     0.058050000000     0.361466666667     0.866866666667     0          
T        Si     0.466350000000     0.394400000000     0.736800000000     0          
T        Si     0.380100000000     0.335900000000     0.679300000000     0          
T        Si     0.400050000000     0.438733333333     0.738066666667     0          
T        Si     0.441950000000     0.361466666667     0.966466666667     0          
T        Si     0.466350000000     0.605600000000     0.903466666667     0          
T        Si     0.380100000000     0.664100000000     0.845966666667     0          
T        Si     0.400050000000     0.561266666667     0.904733333333     0          
T        Si     0.441950000000     0.638533333333     0.799800000000     0          
T        Si     0.033650000000     0.605600000000     0.929866666667     0          
T        Si     0.119900000000     0.664100000000     0.987366666667     0          
T        Si     0.099950000000     0.561266666667     0.928600000000     0          
T        Si     0.058050000000     0.638533333333     0.700200000000     0          
T        Si     0.283650000000     0.561066666667     0.763200000000     0          
T        Si     0.369900000000     0.502566666667     0.820700000000     0          
T        Si     0.349950000000     0.605400000000     0.761933333333     0          
T        Si     0.308050000000     0.528133333333     0.866866666667     0          
T        Si     0.216350000000     0.561066666667     0.736800000000     0          
T        Si     0.130100000000     0.502566666667     0.679300000000     0          
T        Si     0.150050000000     0.605400000000     0.738066666667     0          
T        Si     0.191950000000     0.528133333333     0.966466666667     0          
T        Si     0.216350000000     0.438933333333     0.903466666667     0          
T        Si     0.130100000000     0.497433333333     0.845966666667     0          
T        Si     0.150050000000     0.394600000000     0.904733333333     0          
T        Si     0.191950000000     0.471866666667     0.799800000000     0          
T        Si     0.283650000000     0.438933333333     0.929866666667     0          
T        Si     0.369900000000     0.497433333333     0.987366666667     0          
T        Si     0.349950000000     0.394600000000     0.928600000000     0          
T        Si     0.308050000000     0.471866666667     0.700200000000     0          
T        Si     0.033650000000     0.727733333333     0.096533333333     0          
T        Si     0.119900000000     0.669233333333     0.154033333333     0          
T        Si     0.099950000000     0.772066666667     0.095266666667     0          
T        Si     0.058050000000     0.694800000000     0.200200000000     0          
T        Si     0.466350000000     0.727733333333     0.070133333333     0          
T        Si     0.380100000000     0.669233333333     0.012633333333     0          
T        Si     0.400050000000     0.772066666667     0.071400000000     0          
T        Si     0.441950000000     0.694800000000     0.299800000000     0          
T        Si     0.466350000000     0.938933333333     0.236800000000     0          
T        Si     0.380100000000     0.997433333333     0.179300000000     0          
T        Si     0.400050000000     0.894600000000     0.238066666667     0          
T        Si     0.441950000000     0.971866666667     0.133133333333     0          
T        Si     0.033650000000     0.938933333333     0.263200000000     0          
T        Si     0.119900000000     0.997433333333     0.320700000000     0          
T        Si     0.099950000000     0.894600000000     0.261933333333     0          
T        Si     0.058050000000     0.971866666667     0.033533333333     0          
T        Si     0.283650000000     0.894400000000     0.096533333333     0          
T        Si     0.369900000000     0.835900000000     0.154033333333     0          
T        Si     0.349950000000     0.938733333333     0.095266666667     0          
T        Si     0.308050000000     0.861466666667     0.200200000000     0          
T        Si     0.216350000000     0.894400000000     0.070133333333     0          
T        Si     0.130100000000     0.835900000000     0.012633333333     0          
T        Si     0.150050000000     0.938733333333     0.071400000000     0          
T        Si     0.191950000000     0.861466666667     0.299800000000     0          
T        Si     0.216350000000     0.772266666667     0.236800000000     0          
T        Si     0.130100000000     0.830766666667     0.179300000000     0          
T        Si     0.150050000000     0.727933333333     0.238066666667     0          
T        Si     0.191950000000     0.805200000000     0.133133333333     0          
T        Si     0.283650000000     0.772266666667     0.263200000000     0          
T        Si     0.369900000000     0.830766666667     0.320700000000     0          
T        Si     0.349950000000     0.727933333333     0.261933333333     0          
T        Si     0.308050000000     0.805200000000     0.033533333333     0          
T        Si     0.033650000000     0.727733333333     0.429866666667     0          
T        Si     0.119900000000     0.669233333333     0.487366666667     0          
T        Si     0.099950000000     0.772066666667     0.428600000000     0          
T        Si     0.058050000000     0.694800000000     0.533533333333     0          
T        Si     0.466350000000     0.727733333333     0.403466666667     0          
T        Si     0.380100000000     0.669233333333     0.345966666667     0          
T        Si     0.400050000000     0.772066666667     0.404733333333     0          
T        Si     0.441950000000     0.694800000000     0.633133333333     0          
T        Si     0.466350000000     0.938933333333     0.570133333333     0          
T        Si     0.380100000000     0.997433333333     0.512633333333     0          
T        Si     0.400050000000     0.894600000000     0.571400000000     0          
T        Si     0.441950000000     0.971866666667     0.466466666667     0          
T        Si     0.033650000000     0.938933333333     0.596533333333     0          
T        Si     0.119900000000     0.997433333333     0.654033333333     0          
T        Si     0.099950000000     0.894600000000     0.595266666667     0          
T        Si     0.058050000000     0.971866666667     0.366866666667     0          
T        Si     0.283650000000     0.894400000000     0.429866666667     0          
T        Si     0.369900000000     0.835900000000     0.487366666667     0          
T        Si     0.349950000000     0.938733333333     0.428600000000     0          
T        Si     0.308050000000     0.861466666667     0.533533333333     0          
T        Si     0.216350000000     0.894400000000     0.403466666667     0          
T        Si     0.130100000000     0.835900000000     0.345966666667     0          
T        Si     0.150050000000     0.938733333333     0.404733333333     0          
T        Si     0.191950000000     0.861466666667     0.633133333333     0          
T        Si     0.216350000000     0.772266666667     0.570133333333     0          
T        Si     0.130100000000     0.830766666667     0.512633333333     0          
T        Si     0.150050000000     0.727933333333     0.571400000000     0          
T        Si     0.191950000000     0.805200000000     0.466466666667     0          
T        Si     0.283650000000     0.772266666667     0.596533333333     0          
T        Si     0.369900000000     0.830766666667     0.654033333333     0          
T        Si     0.349950000000     0.727933333333     0.595266666667     0          
T        Si     0.308050000000     0.805200000000     0.366866666667     0          
T        Si     0.033650000000     0.727733333333     0.763200000000     0          
T        Si     0.119900000000     0.669233333333     0.820700000000     0          
T        Si     0.099950000000     0.772066666667     0.761933333333     0          
T        Si     0.058050000000     0.694800000000     0.866866666667     0          
T        Si     0.466350000000     0.727733333333     0.736800000000     0          
T        Si     0.380100000000     0.669233333333     0.679300000000     0          
T        Si     0.400050000000     0.772066666667     0.738066666667     0          
T        Si     0.441950000000     0.694800000000     0.966466666667     0          
T        Si     0.466350000000     0.938933333333     0.903466666667     0          
T        Si     0.380100000000     0.997433333333     0.845966666667     0          
T        Si     0.400050000000     0.894600000000     0.904733333333     0          
T        Si     0.441950000000     0.971866666667     0.799800000000     0          
T        Si     0.033650000000     0.938933333333     0.929866666667     0          
T        Si     0.119900000000     0.997433333333     0.987366666667     0          
T        Si     0.099950000000     0.894600000000     0.928600000000     0          
T        Si     0.058050000000     0.971866666667     0.700200000000     0          
T        Si     0.283650000000     0.894400000000     0.763200000000     0          
T        Si     0.369900000000     0.835900000000     0.820700000000     0          
T        Si     0.349950000000     0.938733333333     0.761933333333     0          
T        Si     0.308050000000     0.861466666667     0.866866666667     0          
T        Si     0.216350000000     0.894400000000     0.736800000000     0          
T        Si     0.130100000000     0.835900000000     0.679300000000     0          
T        Si     0.150050000000     0.938733333333     0.738066666667     0          
T        Si     0.191950000000     0.861466666667     0.966466666667     0          
T        Si     0.216350000000     0.772266666667     0.903466666667     0          
T        Si     0.130100000000     0.830766666667     0.845966666667     0          
T        Si     0.150050000000     0.727933333333     0.904733333333     0          
T        Si     0.191950000000     0.805200000000     0.799800000000     0          
T        Si     0.283650000000     0.772266666667     0.929866666667     0          
T        Si     0.369900000000     0.830766666667     0.987366666667     0          
T        Si     0.349950000000     0.727933333333     0.928600000000     0          
T        Si     0.308050000000     0.805200000000     0.700200000000     0          
T        Si     0.533650000000     0.061066666667     0.096533333333     0          
T        Si     0.619900000000     0.002566666667     0.154033333333     0          
T        Si     0.599950000000     0.105400000000     0.095266666667     0          
T        Si     0.558050000000     0.028133333333     0.200200000000     0          
T        Si     0.966350000000     0.061066666667     0.070133333333     0          
T        Si     0.880100000000     0.002566666667     0.012633333333     0          
T        Si     0.900050000000     0.105400000000     0.071400000000     0          
T        Si     0.941950000000     0.028133333333     0.299800000000     0          
T        Si     0.966350000000     0.272266666667     0.236800000000     0          
T        Si     0.880100000000     0.330766666667     0.179300000000     0          
T        Si     0.900050000000     0.227933333333     0.238066666667     0          
T        Si     0.941950000000     0.305200000000     0.133133333333     0          
T        Si     0.533650000000     0.272266666667     0.263200000000     0          
T        Si     0.619900000000     0.330766666667     0.320700000000     0          
T        Si     0.599950000000     0.227933333333     0.261933333333     0          
T        Si     0.558050000000     0.305200000000     0.033533333333     0          
T        Si     0.783650000000     0.227733333333     0.096533333333     0          
T        Si     0.869900000000     0.169233333333     0.154033333333     0          
T        Si     0.849950000000     0.272066666667     0.095266666667     0          
T        Si     0.808050000000     0.194800000000     0.200200000000     0          
T        Si     0.716350000000     0.227733333333     0.070133333333     0          
T        Si     0.630100000000     0.169233333333     0.012633333333     0          
T        Si     0.650050000000     0.272066666667     0.071400000000     0          
T        Si     0.691950000000     0.194800000000     0.299800000000     0          
T        Si     0.716350000000     0.105600000000     0.236800000000     0          
T        Si     0.630100000000     0.164100000000     0.179300000000     0          
T        Si     0.650050000000     0.061266666667     0.238066666667     0          
T        Si     0.691950000000     0.138533333333     0.133133333333     0          
T        Si     0.783650000000     0.105600000000     0.263200000000     0          
T        Si     0.869900000000     0.164100000000     0.320700000000     0          
T        Si     0.849950000000     0.061266666667     0.261933333333     0          
T        Si     0.808050000000     0.138533333333     0.033533333333     0          
T        Si     0.533650000000     0.061066666667     0.429866666667     0          
T        Si     0.619900000000     0.002566666667     0.487366666667     0          
T        Si     0.599950000000     0.105400000000     0.428600000000     0          
T        Si     0.558050000000     0.028133333333     0.533533333333     0          
T        Si     0.966350000000     0.061066666667     0.403466666667     0          
T        Si     0.880100000000     0.002566666667     0.345966666667     0          
T        Si     0.900050000000     0.105400000000     0.404733333333     0          
T        Si     0.941950000000     0.028133333333     0.633133333333     0          
T        Si     0.966350000000     0.272266666667     0.570133333333     0          
T        Si     0.880100000000     0.330766666667     0.512633333333     0          
T        Si     0.900050000000     0.227933333333     0.571400000000     0          
T        Si     0.941950000000     0.305200000000     0.466466666667     0          
T        Si     0.533650000000     0.272266666667     0.596533333333     0          
T        Si     0.619900000000     0.330766666667     0.654033333333     0          
T        Si     0.599950000000     0.227933333333     0.595266666667     0          
T        Si     0.558050000000     0.305200000000     0.366866666667     0          
T        Si     0.783650000000     0.227733333333     0.429866666667     0          
T        Si     0.869900000000     0.169233333333     0.487366666667     0          
T        Si     0.849950000000     0.272066666667     0.428600000000     0          
T        Si     0.808050000000     0.194800000000     0.533533333333     0          
T        Si     0.716350000000     0.227733333333     0.403466666667     0          
T        Si     0.630100000000     0.169233333333     0.345966666667     0          
T        Si     0.650050000000     0.272066666667     0.404733333333     0          
T        Si     0.691950000000     0.194800000000     0.633133333333     0          
T        Si     0.716350000000     0.105600000000     0.570133333333     0          
T        Si     0.630100000000     0.164100000000     0.512633333333     0          
T        Si     0.650050000000     0.061266666667     0.571400000000     0          
T        Si     0.691950000000     0.138533333333     0.466466666667     0          
T        Si     0.783650000000     0.105600000000     0.596533333333     0          
T        Si     0.869900000000     0.164100000000     0.654033333333     0          
T        Si     0.849950000000     0.061266666667     0.595266666667     0          
T        Si     0.808050000000     0.138533333333     0.366866666667     0          
T        Si     0.533650000000     0.061066666667     0.763200000000     0          
T        Si     0.619900000000     0.002566666667     0.820700000000     0          
T        Si     0.599950000000     0.105400000000     0.761933333333     0          
T        Si     0.558050000000     0.028133333333     0.866866666667     0          
T        Si     0.966350000000     0.061066666667     0.736800000000     0          
T        Si     0.880100000000     0.002566666667     0.679300000000     0          
T        Si     0.900050000000     0.105400000000     0.738066666667     0          
T        Si     0.941950000000     0.028133333333     0.966466666667     0          
T        Si     0.966350000000     0.272266666667     0.903466666667     0          
T        Si     0.880100000000     0.330766666667     0.845966666667     0          
T        Si     0.900050000000     0.227933333333     0.904733333333     0          
T        Si     0.941950000000     0.305200000000     0.799800000000     0          
T        Si     0.533650000000     0.272266666667     0.929866666667     0          
T        Si     0.619900000000     0.330766666667     0.987366666667     0          
T        Si     0.599950000000     0.227933333333     0.928600000000     0          
T        Si     0.558050000000     0.305200000000     0.700200000000     0          
T        Si     0.783650000000     0.227733333333     0.763200000000     0          
T        Si     0.869900000000     0.169233333333     0.820700000000     0          
T        Si     0.849950000000     0.272066666667     0.761933333333     0          
T        Si     0.808050000000     0.194800000000     0.866866666667     0          
T        Si     0.716350000000     0.227733333333     0.736800000000     0          
T        Si     0.630100000000     0.169233333333     0.679300000000     0          
T        Si     0.650050000000     0.272066666667     0.738066666667     0          
T        Si     0.691950000000     0.194800000000     0.966466666667     0          
T        Si     0.716350000000     0.105600000000     0.903466666667     0          
T        Si     0.630100000000     0.164100000000     0.845966666667     0          
T        Si     0.650050000000     0.061266666667     0.904733333333     0          
T        Si     0.691950000000     0.138533333333     0.799800000000     0          
T        Si     0.783650000000     0.105600000000     0.929866666667     0          
T        Si     0.869900000000     0.164100000000     0.987366666667     0          
T        Si     0.849950000000     0.061266666667     0.928600000000     0          
T        Si     0.808050000000     0.138533333333     0.700200000000     0          
T        Si     0.533650000000     0.394400000000     0.096533333333     0          
T        Si     0.619900000000     0.335900000000     0.154033333333     0          
T        Si     0.599950000000     0.438733333333     0.095266666667     0          
T        Si     0.558050000000     0.361466666667     0.200200000000     0          
T        Si     0.966350000000     0.394400000000     0.070133333333     0          
T        Si     0.880100000000     0.335900000000     0.012633333333     0          
T        Si     0.900050000000     0.438733333333     0.071400000000     0          
T        Si     0.941950000000     0.361466666667     0.299800000000     0          
T        Si     0.966350000000     0.605600000000     0.236800000000     0          
T        Si     0.880100000000     0.664100000000     0.179300000000     0          
T        Si     0.900050000000     0.561266666667     0.238066666667     0          
T        Si     0.941950000000     0.638533333333     0.133133333333     0          
T        Si     0.533650000000     0.605600000000     0.263200000000     0          
T        Si     0.619900000000     0.664100000000     0.320700000000     0          
T        Si     0.599950000000     0.561266666667     0.261933333333     0          
T        Si     0.558050000000     0.638533333333     0.033533333333     0          
T        Si     0.783650000000     0.561066666667     0.096533333333     0          
T        Si     0.869900000000     0.502566666667     0.154033333333     0          
T        Si     0.849950000000     0.605400000000     0.095266666667     0          
T        Si     0.808050000000     0.528133333333     0.200200000000     0          
T        Si     0.716350000000     0.561066666667     0.070133333333     0          
T        Si     0.630100000000     0.502566666667     0.012633333333     0          
T        Si     0.650050000000     0.605400000000     0.071400000000     0          
T        Si     0.691950000000     0.528133333333     0.299800000000     0          
T        Si     0.716350000000     0.438933333333     0.236800000000     0          
T        Si     0.630100000000     0.497433333333     0.179300000000     0          
T        Si     0.650050000000     0.394600000000     0.238066666667     0          
T        Si     0.691950000000     0.471866666667     0.133133333333     0          
T        Si     0.783650000000     0.438933333333     0.263200000000     0          
T        Si     0.869900000000     0.497433333333     0.320700000000     0          
T        Si     0.849950000000     0.394600000000     0.261933333333     0          
T        Si     0.808050000000     0.471866666667     0.033533333333     0          
T        Si     0.533650000000     0.394400000000     0.429866666667     0          
T        Si     0.619900000000     0.335900000000     0.487366666667     0          
T        Si     0.599950000000     0.438733333333     0.428600000000     0          
T        Si     0.558050000000     0.361466666667     0.533533333333     0          
T        Si     0.966350000000     0.394400000000     0.403466666667     0          
T        Si     0.880100000000     0.335900000000     0.345966666667     0          
T        Si     0.900050000000     0.438733333333     0.404733333333     0          
T        Si     0.941950000000     0.361466666667     0.633133333333     0          
T        Si     0.966350000000     0.605600000000     0.570133333333     0          
T        Si     0.880100000000     0.664100000000     0.512633333333     0          
T        Si     0.900050000000     0.561266666667     0.571400000000     0          
T        Si     0.941950000000     0.638533333333     0.466466666667     0          
T        Si     0.533650000000     0.605600000000     0.596533333333     0          
T        Si     0.619900000000     0.664100000000     0.654033333333     0          
T        Si     0.599950000000     0.561266666667     0.595266666667     0          
T        Si     0.558050000000     0.638533333333     0.366866666667     0          
T        Si     0.783650000000     0.561066666667     0.429866666667     0          
T        Si     0.869900000000     0.502566666667     0.487366666667     0          
T        Si     0.849950000000     0.605400000000     0.428600000000     0          
T        Si     0.808050000000     0.528133333333     0.533533333333     0          
T        Si     0.716350000000     0.561066666667     0.403466666667     0          
T        Si     0.630100000000     0.502566666667     0.345966666667     0          
T        Si     0.650050000000     0.605400000000     0.404733333333     0          
T        Si     0.691950000000     0.528133333333     0.633133333333     0          
T        Si     0.716350000000     0.438933333333     0.570133333333     0          
T        Si     0.630100000000     0.497433333333     0.512633333333     0          
T        Si     0.650050000000     0.394600000000     0.571400000000     0          
T        Si     0.691950000000     0.471866666667     0.466466666667     0          
T        Si     0.783650000000     0.438933333333     0.596533333333     0          
T        Si     0.869900000000     0.497433333333     0.654033333333     0          
T        Si     0.849950000000     0.394600000000     0.595266666667     0          
T        Si     0.808050000000     0.471866666667     0.366866666667     0          
T        Si     0.533650000000     0.394400000000     0.763200000000     0          
T        Si     0.619900000000     0.335900000000     0.820700000000     0          
T        Si     0.599950000000     0.438733333333     0.761933333333     0          
T        Si     0.558050000000     0.361466666667     0.866866666667     0          
T        Si     0.966350000000     0.394400000000     0.736800000000     0          
T        Si     0.880100000000     0.335900000000     0.679300000000     0          
T        Si     0.900050000000     0.438733333333     0.738066666667     0          
T        Si     0.941950000000     0.361466666667     0.966466666667     0          
T        Si     0.966350000000     0.605600000000     0.903466666667     0          
T        Si     0.880100000000     0.664100000000     0.845966666667     0          
T        Si     0.900050000000     0.561266666667     0.904733333333     0          
T        Si     0.941950000000     0.638533333333     0.799800000000     0          
T        Si     0.533650000000     0.605600000000     0.929866666667     0          
T        Si     0.619900000000     0.664100000000     0.987366666667     0          
T        Si     0.599950000000     0.561266666667     0.928600000000     0          
T        Si     0.558050000000     0.638533333333     0.700200000000     0          
T        Si     0.783650000000     0.561066666667     0.763200000000     0          
T        Si     0.869900000000     0.502566666667     0.820700000000     0          
T        Si     0.849950000000     0.605400000000     0.761933333333     0          
T        Si     0.808050000000     0.528133333333     0.866866666667     0          
T        Si     0.716350000000     0.561066666667     0.736800000000     0          
T        Si     0.630100000000     0.502566666667     0.679300000000     0          
T        Si     0.650050000000     0.605400000000     0.738066666667     0          
T        Si     0.691950000000     0.528133333333     0.966466666667     0          
T        Si     0.716350000000     0.438933333333     0.903466666667     0          
T        Si     0.630100000000     0.497433333333     0.845966666667     0          
T        Si     0.650050000000     0.394600000000     0.904733333333     0          
T        Si     0.691950000000     0.471866666667     0.799800000000     0          
T        Si     0.783650000000     0.438933333333     0.929866666667     0          
T        Si     0.869900000000     0.497433333333     0.987366666667     0          
T        Si     0.849950000000     0.394600000000     0.928600000000     0          
T        Si     0.808050000000     0.471866666667     0.700200000000     0          
T        Si     0.533650000000     0.727733333333     0.096533333333     0          
T        Si     0.619900000000     0.669233333333     0.154033333333     0          
T        Si     0.599950000000     0.772066666667     0.095266666667     0          
T        Si     0.558050000000     0.694800000000     0.200200000000     0          
T        Si     0.966350000000     0.727733333333     0.070133333333     0          
T        Si     0.880100000000     0.669233333333     0.012633333333     0          
T        Si     0.900050000000     0.772066666667     0.071400000000     0          
T        Si     0.941950000000     0.694800000000     0.299800000000     0          
T        Si     0.966350000000     0.938933333333     0.236800000000     0          
T        Si     0.880100000000     0.997433333333     0.179300000000     0          
T        Si     0.900050000000     0.894600000000     0.238066666667     0          
T        Si     0.941950000000     0.971866666667     0.133133333333     0          
T        Si     0.533650000000     0.938933333333     0.263200000000     0          
T        Si     0.619900000000     0.997433333333     0.320700000000     0          
T        Si     0.599950000000     0.894600000000     0.261933333333     0          
T        Si     0.558050000000     0.971866666667     0.033533333333     0          
T        Si     0.783650000000     0.894400000000     0.096533333333     0          
T        Si     0.869900000000     0.835900000000     0.154033333333     0          
T        Si     0.849950000000     0.938733333333     0.095266666667     0          
T        Si     0.808050000000     0.861466666667     0.200200000000     0          
T        Si     0.716350000000     0.894400000000     0.070133333333     0          
T        Si     0.630100000000     0.835900000000     0.012633333333     0          
T        Si     0.650050000000     0.938733333333     0.071400000000     0          
T        Si     0.691950000000     0.861466666667     0.299800000000     0          
T        Si     0.716350000000     0.772266666667     0.236800000000     0          
T        Si     0.630100000000     0.830766666667     0.179300000000     0          
T        Si     0.650050000000     0.727933333333     0.238066666667     0          
T        Si     0.691950000000     0.805200000000     0.133133333333     0          
T        Si     0.783650000000     0.772266666667     0.263200000000     0          
T        Si     0.869900000000     0.830766666667     0.320700000000     0          
T        Si     0.849950000000     0.727933333333     0.261933333333     0          
T        Si     0.808050000000     0.805200000000     0.033533333333     0          
T        Si     0.533650000000     0.727733333333     0.429866666667     0          
T        Si     0.619900000000     0.669233333333     0.487366666667     0          
T        Si     0.599950000000     0.772066666667     0.428600000000     0          
T        Si     0.558050000000     0.694800000000     0.533533333333     0          
T        Si     0.966350000000     0.727733333333     0.403466666667     0          
T        Si     0.880100000000     0.669233333333     0.345966666667     0          
T        Si     0.900050000000     0.772066666667     0.404733333333     0          
T        Si     0.941950000000     0.694800000000     0.633133333333     0          
T        Si     0.966350000000     0.938933333333     0.570133333333     0          
T        Si     0.880100000000     0.997433333333     0.512633333333     0          
T        Si     0.900050000000     0.894600000000     0.571400000000     0          
T        Si     0.941950000000     0.971866666667     0.466466666667     0          
T        Si     0.533650000000     0.938933333333     0.596533333333     0          
T        Si     0.619900000000     0.997433333333     0.654033333333     0          
T        Si     0.599950000000     0.894600000000     0.595266666667     0          
T        Si     0.558050000000     0.971866666667     0.366866666667     0          
T        Si     0.783650000000     0.894400000000     0.429866666667     0          
T        Si     0.869900000000     0.835900000000     0.487366666667     0          
T        Si     0.849950000000     0.938733333333     0.428600000000     0          
T        Si     0.808050000000     0.861466666667     0.533533333333     0          
T        Si     0.716350000000     0.894400000000     0.403466666667     0          
T        Si     0.630100000000     0.835900000000     0.345966666667     0          
T        Si     0.650050000000     0.938733333333     0.404733333333     0          
T        Si     0.691950000000     0.861466666667     0.633133333333     0          
T        Si     0.716350000000     0.772266666667     0.570133333333     0          
T        Si     0.630100000000     0.830766666667     0.512633333333     0          
T        Si     0.650050000000     0.727933333333     0.571400000000     0          
T        Si     0.691950000000     0.805200000000     0.466466666667     0          
T        Si     0.783650000000     0.772266666667     0.596533333333     0          
T        Si     0.869900000000     0.830766666667     0.654033333333     0          
T        Si     0.849950000000     0.727933333333     0.595266666667     0          
T        Si     0.808050000000     0.805200000000     0.366866666667     0          
T        Si     0.533650000000     0.727733333333     0.763200000000     0          
T        Si     0.619900000000     0.669233333333     0.820700000000     0          
T        Si     0.599950000000     0.772066666667     0.761933333333     0          
T        Si     0.558050000000     0.694800000000     0.866866666667     0          
T        Si     0.966350000000     0.727733333333     0.736800000000     0          
T        Si     0.880100000000     0.669233333333     0.679300000000     0          
T        Si     0.900050000000     0.772066666667     0.738066666667     0          
T        Si     0.941950000000     0.694800000000     0.966466666667     0          
T        Si     0.966350000000     0.938933333333     0.903466666667     0          
T        Si     0.880100000000     0.997433333333     0.845966666667     0          
T        Si     0.900050000000     0.894600000000     0.904733333333     0          
T        Si     0.941950000000     0.971866666667     0.799800000000     0          
T        Si     0.533650000000     0.938933333333     0.929866666667     0          
T        Si     0.619900000000     0.997433333333     0.987366666667     0          
T        Si     0.599950000000     0.894600000000     0.928600000000     0          
T        Si     0.558050000000     0.971866666667     0.700200000000     0          
T        Si     0.783650000000     0.894400000000     0.763200000000     0          
T        Si     0.869900000000     0.835900000000     0.820700000000     0          
T        Si     0.849950000000     0.938733333333     0.761933333333     0          
T        Si     0.808050000000     0.861466666667     0.866866666667     0          
T        Si     0.716350000000     0.894400000000     0.736800000000     0          
T        Si     0.630100000000     0.835900000000     0.679300000000     0          
T        Si     0.650050000000     0.938733333333     0.738066666667     0          
T        Si     0.691950000000     0.861466666667     0.966466666667     0          
T        Si     0.716350000000     0.772266666667     0.903466666667     0          
T        Si     0.630100000000     0.830766666667     0.845966666667     0          
T        Si     0.650050000000     0.727933333333     0.904733333333     0          
T        Si     0.691950000000     0.805200000000     0.799800000000     0          
T        Si     0.783650000000     0.772266666667     0.929866666667     0          
T        Si     0.869900000000     0.830766666667     0.987366666667     0          
T        Si     0.849950000000     0.727933333333     0.928600000000     0          
T        Si     0.808050000000     0.805200000000     0.700200000000     0          
O        O      0.034750000000     0.006033333333     0.072066666667     0          
O        O      0.036250000000     0.057300000000     0.154200000000     0          
O        O      0.061100000000     0.096100000000     0.076500000000     0          
O        O      0.086100000000     0.012100000000     0.008333333333     0          
O        O      0.104050000000     0.155633333333     0.136533333333     0          
O        O      0.117250000000     0.051666666667     0.120166666667     0          
O        O      0.117000000000     0.119966666667     0.040700000000     0          
O        O      0.000000000000     0.087733333333     0.083333333333     0          
O        O      0.176150000000     0.089100000000     0.097266666667     0          
O        O      0.465250000000     0.006033333333     0.094600000000     0          
O        O      0.463750000000     0.057300000000     0.012466666667     0          
O        O      0.438900000000     0.096100000000     0.090166666667     0          
O        O      0.413900000000     0.012100000000     0.158333333333     0          
O        O      0.395950000000     0.155633333333     0.030133333333     0          
O        O      0.382750000000     0.051666666667     0.046500000000     0          
O        O      0.383000000000     0.119966666667     0.125966666667     0          
O        O      0.323850000000     0.089100000000     0.069400000000     0          
O        O      0.465250000000     0.327300000000     0.261266666667     0          
O        O      0.463750000000     0.276033333333     0.179133333333     0          
O        O      0.438900000000     0.237233333333     0.256833333333     0          
O        O      0.413900000000     0.321233333333     0.325000000000     0          
O        O      0.395950000000     0.177700000000     0.196800000000     0          
O        O      0.382750000000     0.281666666667     0.213166666667     0          
O        O      0.383000000000     0.213366666667     0.292633333333     0          
O        O      0.000000000000     0.245600000000     0.250000000000     0          
O        O      0.323850000000     0.244233333333     0.236066666667     0          
O        O      0.034750000000     0.327300000000     0.238733333333     0          
O        O      0.036250000000     0.276033333333     0.320866666667     0          
O        O      0.061100000000     0.237233333333     0.243166666667     0          
O        O      0.086100000000     0.321233333333     0.175000000000     0          
O        O      0.104050000000     0.177700000000     0.303200000000     0          
O        O      0.117250000000     0.281666666667     0.286833333333     0          
O        O      0.117000000000     0.213366666667     0.207366666667     0          
O        O      0.176150000000     0.244233333333     0.263933333333     0          
O        O      0.284750000000     0.172700000000     0.072066666667     0          
O        O      0.286250000000     0.223966666667     0.154200000000     0          
O        O      0.311100000000     0.262766666667     0.076500000000     0          
O        O      0.336100000000     0.178766666667     0.008333333333     0          
O        O      0.354050000000     0.322300000000     0.136533333333     0          
O        O      0.367250000000     0.218333333333     0.120166666667     0          
O        O      0.367000000000     0.286633333333     0.040700000000     0          
O        O      0.250000000000     0.254400000000     0.083333333333     0          
O        O      0.426150000000     0.255766666667     0.097266666667     0          
O        O      0.215250000000     0.172700000000     0.094600000000     0          
O        O      0.213750000000     0.223966666667     0.012466666667     0          
O        O      0.188900000000     0.262766666667     0.090166666667     0          
O        O      0.163900000000     0.178766666667     0.158333333333     0          
O        O      0.145950000000     0.322300000000     0.030133333333     0          
O        O      0.132750000000     0.218333333333     0.046500000000     0          
O        O      0.133000000000     0.286633333333     0.125966666667     0          
O        O      0.073850000000     0.255766666667     0.069400000000     0          
O        O      0.215250000000     0.160633333333     0.261266666667     0          
O        O      0.213750000000     0.109366666667     0.179133333333     0          
O        O      0.188900000000     0.070566666667     0.256833333333     0          
O        O      0.163900000000     0.154566666667     0.325000000000     0          
O        O      0.145950000000     0.011033333333     0.196800000000     0          
O        O      0.132750000000     0.115000000000     0.213166666667     0          
O        O      0.133000000000     0.046700000000     0.292633333333     0          
O        O      0.250000000000     0.078933333333     0.250000000000     0          
O        O      0.073850000000     0.077566666667     0.236066666667     0          
O        O      0.284750000000     0.160633333333     0.238733333333     0          
O        O      0.286250000000     0.109366666667     0.320866666667     0          
O        O      0.311100000000     0.070566666667     0.243166666667     0          
O        O      0.336100000000     0.154566666667     0.175000000000     0          
O        O      0.354050000000     0.011033333333     0.303200000000     0          
O        O      0.367250000000     0.115000000000     0.286833333333     0          
O        O      0.367000000000     0.046700000000     0.207366666667     0          
O        O      0.426150000000     0.077566666667     0.263933333333     0          
O        O      0.034750000000     0.006033333333     0.405400000000     0          
O        O      0.036250000000     0.057300000000     0.487533333333     0          
O        O      0.061100000000     0.096100000000     0.409833333333     0          
O        O      0.086100000000     0.012100000000     0.341666666667     0          
O        O      0.104050000000     0.155633333333     0.469866666667     0          
O        O      0.117250000000     0.051666666667     0.453500000000     0          
O        O      0.117000000000     0.119966666667     0.374033333333     0          
O        O      0.000000000000     0.087733333333     0.416666666667     0          
O        O      0.176150000000     0.089100000000     0.430600000000     0          
O        O      0.465250000000     0.006033333333     0.427933333333     0          
O        O      0.463750000000     0.057300000000     0.345800000000     0          
O        O      0.438900000000     0.096100000000     0.423500000000     0          
O        O      0.413900000000     0.012100000000     0.491666666667     0          
O        O      0.395950000000     0.155633333333     0.363466666667     0          
O        O      0.382750000000     0.051666666667     0.379833333333     0          
O        O      0.383000000000     0.119966666667     0.459300000000     0          
O        O      0.323850000000     0.089100000000     0.402733333333     0          
O        O      0.465250000000     0.327300000000     0.594600000000     0          
O        O      0.463750000000     0.276033333333     0.512466666667     0          
O        O      0.438900000000     0.237233333333     0.590166666667     0          
O        O      0.413900000000     0.321233333333     0.658333333333     0          
O        O      0.395950000000     0.177700000000     0.530133333333     0          
O        O      0.382750000000     0.281666666667     0.546500000000     0          
O        O      0.383000000000     0.213366666667     0.625966666667     0          
O        O      0.000000000000     0.245600000000     0.583333333333     0          
O        O      0.323850000000     0.244233333333     0.569400000000     0          
O        O      0.034750000000     0.327300000000     0.572066666667     0          
O        O      0.036250000000     0.276033333333     0.654200000000     0          
O        O      0.061100000000     0.237233333333     0.576500000000     0          
O        O      0.086100000000     0.321233333333     0.508333333333     0          
O        O      0.104050000000     0.177700000000     0.636533333333     0          
O        O      0.117250000000     0.281666666667     0.620166666667     0          
O        O      0.117000000000     0.213366666667     0.540700000000     0          
O        O      0.176150000000     0.244233333333     0.597266666667     0          
O        O      0.284750000000     0.172700000000     0.405400000000     0          
O        O      0.286250000000     0.223966666667     0.487533333333     0          
O        O      0.311100000000     0.262766666667     0.409833333333     0          
O        O      0.336100000000     0.178766666667     0.341666666667     0          
O        O      0.354050000000     0.322300000000     0.469866666667     0          
O        O      0.367250000000     0.218333333333     0.453500000000     0          
O        O      0.367000000000     0.286633333333     0.374033333333     0          
O        O      0.250000000000     0.254400000000     0.416666666667     0          
O        O      0.426150000000     0.255766666667     0.430600000000     0          
O        O      0.215250000000     0.172700000000     0.427933333333     0          
O        O      0.213750000000     0.223966666667     0.345800000000     0          
O        O      0.188900000000     0.262766666667     0.423500000000     0          
O        O      0.163900000000     0.178766666667     0.491666666667     0          
O        O      0.145950000000     0.322300000000     0.363466666667     0          
O        O      0.132750000000     0.218333333333     0.379833333333     0          
O        O      0.133000000000     0.286633333333     0.459300000000     0          
O        O      0.073850000000     0.255766666667     0.402733333333     0          
O        O      0.215250000000     0.160633333333     0.594600000000     0          
O        O      0.213750000000     0.109366666667     0.512466666667     0          
O        O      0.188900000000     0.070566666667     0.590166666667     0          
O        O      0.163900000000     0.154566666667     0.658333333333     0          
O        O      0.145950000000     0.011033333333     0.530133333333     0          
O        O      0.132750000000     0.115000000000     0.546500000000     0          
O        O      0.133000000000     0.046700000000     0.625966666667     0          
O        O      0.250000000000     0.078933333333     0.583333333333     0          
O        O      0.073850000000     0.077566666667     0.569400000000     0          
O        O      0.284750000000     0.160633333333     0.572066666667     0          
O        O      0.286250000000     0.109366666667     0.654200000000     0          
O        O      0.311100000000     0.070566666667     0.576500000000     0          
O        O      0.336100000000     0.154566666667     0.508333333333     0          
O        O      0.354050000000     0.011033333333     0.636533333333     0          
O        O      0.367250000000     0.115000000000     0.620166666667     0          
O        O      0.367000000000     0.046700000000     0.540700000000     0          
O        O      0.426150000000     0.077566666667     0.597266666667     0          
O        O      0.034750000000     0.006033333333     0.738733333333     0          
O        O      0.036250000000     0.057300000000     0.820866666667     0          
O        O      0.061100000000     0.096100000000     0.743166666667     0          
O        O      0.086100000000     0.012100000000     0.675000000000     0          
O        O      0.104050000000     0.155633333333     0.803200000000     0          
O        O      0.117250000000     0.051666666667     0.786833333333     0          
O        O      0.117000000000     0.119966666667     0.707366666667     0          
O        O      0.000000000000     0.087733333333     0.750000000000     0          
O        O      0.176150000000     0.089100000000     0.763933333333     0          
O        O      0.465250000000     0.006033333333     0.761266666667     0          
O        O      0.463750000000     0.057300000000     0.679133333333     0          
O        O      0.438900000000     0.096100000000     0.756833333333     0          
O        O      0.413900000000     0.012100000000     0.825000000000     0          
O        O      0.395950000000     0.155633333333     0.696800000000     0          
O        O      0.382750000000     0.051666666667     0.713166666667     0          
O        O      0.383000000000     0.119966666667     0.792633333333     0          
O        O      0.323850000000     0.089100000000     0.736066666667     0          
O        O      0.465250000000     0.327300000000     0.927933333333     0          
O        O      0.463750000000     0.276033333333     0.845800000000     0          
O        O      0.438900000000     0.237233333333     0.923500000000     0          
O        O      0.413900000000     0.321233333333     0.991666666667     0          
O        O      0.395950000000     0.177700000000     0.863466666667     0          
O        O      0.382750000000     0.281666666667     0.879833333333     0          
O        O      0.383000000000     0.213366666667     0.959300000000     0          
O        O      0.000000000000     0.245600000000     0.916666666667     0          
O        O      0.323850000000     0.244233333333     0.902733333333     0          
O        O      0.034750000000     0.327300000000     0.905400000000     0          
O        O      0.036250000000     0.276033333333     0.987533333333     0          
O        O      0.061100000000     0.237233333333     0.909833333333     0          
O        O      0.086100000000     0.321233333333     0.841666666667     0          
O        O      0.104050000000     0.177700000000     0.969866666667     0          
O        O      0.117250000000     0.281666666667     0.953500000000     0          
O        O      0.117000000000     0.213366666667     0.874033333333     0          
O        O      0.176150000000     0.244233333333     0.930600000000     0          
O        O      0.284750000000     0.172700000000     0.738733333333     0          
O        O      0.286250000000     0.223966666667     0.820866666667     0          
O        O      0.311100000000     0.262766666667     0.743166666667     0          
O        O      0.336100000000     0.178766666667     0.675000000000     0          
O        O      0.354050000000     0.322300000000     0.803200000000     0          
O        O      0.367250000000     0.218333333333     0.786833333333     0          
O        O      0.367000000000     0.286633333333     0.707366666667     0          
O        O      0.250000000000     0.254400000000     0.750000000000     0          
O        O      0.426150000000     0.255766666667     0.763933333333     0          
O        O      0.215250000000     0.172700000000     0.761266666667     0          
O        O      0.213750000000     0.223966666667     0.679133333333     0          
O        O      0.188900000000     0.262766666667     0.756833333333     0          
O        O      0.163900000000     0.178766666667     0.825000000000     0          
O        O      0.145950000000     0.322300000000     0.696800000000     0          
O        O      0.132750000000     0.218333333333     0.713166666667     0          
O        O      0.133000000000     0.286633333333     0.792633333333     0          
O        O      0.073850000000     0.255766666667     0.736066666667     0          
O        O      0.215250000000     0.160633333333     0.927933333333     0          
O        O      0.213750000000     0.109366666667     0.845800000000     0          
O        O      0.188900000000     0.070566666667     0.923500000000     0          
O        O      0.163900000000     0.154566666667     0.991666666667     0          
O        O      0.145950000000     0.011033333333     0.863466666667     0          
O        O      0.132750000000     0.115000000000     0.879833333333     0          
O        O      0.133000000000     0.046700000000     0.959300000000     0          
O        O      0.250000000000     0.078933333333     0.916666666667     0          
O        O      0.073850000000     0.077566666667     0.902733333333     0          
O        O      0.284750000000     0.160633333333     0.905400000000     0          
O        O      0.286250000000     0.109366666667     0.987533333333     0          
O        O      0.311100000000     0.070566666667     0.909833333333     0          
O        O      0.336100000000     0.154566666667     0.841666666667     0          
O        O      0.354050000000     0.011033333333     0.969866666667     0          
O        O      0.367250000000     0.115000000000     0.953500000000     0          
O        O      0.367000000000     0.046700000000     0.874033333333     0          
O        O      0.426150000000     0.077566666667     0.930600000000     0          
O        O      0.034750000000     0.339366666667     0.072066666667     0          
O        O      0.036250000000     0.390633333333     0.154200000000     0          
O        O      0.061100000000     0.429433333333     0.076500000000     0          
O        O      0.086100000000     0.345433333333     0.008333333333     0          
O        O      0.104050000000     0.488966666667     0.136533333333     0          
O        O      0.117250000000     0.385000000000     0.120166666667     0          
O        O      0.117000000000     0.453300000000     0.040700000000     0          
O        O      0.000000000000     0.421066666667     0.083333333333     0          
O        O      0.176150000000     0.422433333333     0.097266666667     0          
O        O      0.465250000000     0.339366666667     0.094600000000     0          
O        O      0.463750000000     0.390633333333     0.012466666667     0          
O        O      0.438900000000     0.429433333333     0.090166666667     0          
O        O      0.413900000000     0.345433333333     0.158333333333     0          
O        O      0.395950000000     0.488966666667     0.030133333333     0          
O        O      0.382750000000     0.385000000000     0.046500000000     0          
O        O      0.383000000000     0.453300000000     0.125966666667     0          
O        O      0.323850000000     0.422433333333     0.069400000000     0          
O        O      0.465250000000     0.660633333333     0.261266666667     0          
O        O      0.463750000000     0.609366666667     0.179133333333     0          
O        O      0.438900000000     0.570566666667     0.256833333333     0          
O        O      0.413900000000     0.654566666667     0.325000000000     0          
O        O      0.395950000000     0.511033333333     0.196800000000     0          
O        O      0.382750000000     0.615000000000     0.213166666667     0          
O        O      0.383000000000     0.546700000000     0.292633333333     0          
O        O      0.000000000000     0.578933333333     0.250000000000     0          
O        O      0.323850000000     0.577566666667     0.236066666667     0          
O        O      0.034750000000     0.660633333333     0.238733333333     0          
O        O      0.036250000000     0.609366666667     0.320866666667     0          
O        O      0.061100000000     0.570566666667     0.243166666667     0          
O        O      0.086100000000     0.654566666667     0.175000000000     0          
O        O      0.104050000000     0.511033333333     0.303200000000     0          
O        O      0.117250000000     0.615000000000     0.286833333333     0          
O        O      0.117000000000     0.546700000000     0.207366666667     0          
O        O      0.176150000000     0.577566666667     0.263933333333     0          
O        O      0.284750000000     0.506033333333     0.072066666667     0          
O        O      0.286250000000     0.557300000000     0.154200000000     0          
O        O      0.311100000000     0.596100000000     0.076500000000     0          
O        O      0.336100000000     0.512100000000     0.008333333333     0          
O        O      0.354050000000     0.655633333333     0.136533333333     0          
O        O      0.367250000000     0.551666666667     0.120166666667     0          
O        O      0.367000000000     0.619966666667     0.040700000000     0          
O        O      0.250000000000     0.587733333333     0.083333333333     0          
O        O      0.426150000000     0.589100000000     0.097266666667     0          
O        O      0.215250000000     0.506033333333     0.094600000000     0          
O        O      0.213750000000     0.557300000000     0.012466666667     0          
O        O      0.188900000000     0.596100000000     0.090166666667     0          
O        O      0.163900000000     0.512100000000     0.158333333333     0          
O        O      0.145950000000     0.655633333333     0.030133333333     0          
O        O      0.132750000000     0.551666666667     0.046500000000     0          
O        O      0.133000000000     0.619966666667     0.125966666667     0          
O        O      0.073850000000     0.589100000000     0.069400000000     0          
O        O      0.215250000000     0.493966666667     0.261266666667     0          
O        O      0.213750000000     0.442700000000     0.179133333333     0          
O        O      0.188900000000     0.403900000000     0.256833333333     0          
O        O      0.163900000000     0.487900000000     0.325000000000     0          
O        O      0.145950000000     0.344366666667     0.196800000000     0          
O        O      0.132750000000     0.448333333333     0.213166666667     0          
O        O      0.133000000000     0.380033333333     0.292633333333     0          
O        O      0.250000000000     0.412266666667     0.250000000000     0          
O        O      0.073850000000     0.410900000000     0.236066666667     0          
O        O      0.284750000000     0.493966666667     0.238733333333     0          
O        O      0.286250000000     0.442700000000     0.320866666667     0          
O        O      0.311100000000     0.403900000000     0.243166666667     0          
O        O      0.336100000000     0.487900000000     0.175000000000     0          
O        O      0.354050000000     0.344366666667     0.303200000000     0          
O        O      0.367250000000     0.448333333333     0.286833333333     0          
O        O      0.367000000000     0.380033333333     0.207366666667     0          
O        O      0.426150000000     0.410900000000     0.263933333333     0          
O        O      0.034750000000     0.339366666667     0.405400000000     0          
O        O      0.036250000000     0.390633333333     0.487533333333     0          
O        O      0.061100000000     0.429433333333     0.409833333333     0          
O        O      0.086100000000     0.345433333333     0.341666666667     0          
O        O      0.104050000000     0.488966666667     0.469866666667     0          
O        O      0.117250000000     0.385000000000     0.453500000000     0          
O        O      0.117000000000     0.453300000000     0.374033333333     0          
O        O      0.000000000000     0.421066666667     0.416666666667     0          
O        O      0.176150000000     0.422433333333     0.430600000000     0          
O        O      0.465250000000     0.339366666667     0.427933333333     0          
O        O      0.463750000000     0.390633333333     0.345800000000     0          
O        O      0.438900000000     0.429433333333     0.423500000000     0          
O        O      0.413900000000     0.345433333333     0.491666666667     0          
O        O      0.395950000000     0.488966666667     0.363466666667     0          
O        O      0.382750000000     0.385000000000     0.379833333333     0          
O        O      0.383000000000     0.453300000000     0.459300000000     0          
O        O      0.323850000000     0.422433333333     0.402733333333     0          
O        O      0.465250000000     0.660633333333     0.594600000000     0          
O        O      0.463750000000     0.609366666667     0.512466666667     0          
O        O      0.438900000000     0.570566666667     0.590166666667     0          
O        O      0.413900000000     0.654566666667     0.658333333333     0          
O        O      0.395950000000     0.511033333333     0.530133333333     0          
O        O      0.382750000000     0.615000000000     0.546500000000     0          
O        O      0.383000000000     0.546700000000     0.625966666667     0          
O        O      0.000000000000     0.578933333333     0.583333333333     0          
O        O      0.323850000000     0.577566666667     0.569400000000     0          
O        O      0.034750000000     0.660633333333     0.572066666667     0          
O        O      0.036250000000     0.609366666667     0.654200000000     0          
O        O      0.061100000000     0.570566666667     0.576500000000     0          
O        O      0.086100000000     0.654566666667     0.508333333333     0          
O        O      0.104050000000     0.511033333333     0.636533333333     0          
O        O      0.117250000000     0.615000000000     0.620166666667     0          
O        O      0.117000000000     0.546700000000     0.540700000000     0          
O        O      0.176150000000     0.577566666667     0.597266666667     0          
O        O      0.284750000000     0.506033333333     0.405400000000     0          
O        O      0.286250000000     0.557300000000     0.487533333333     0          
O        O      0.311100000000     0.596100000000     0.409833333333     0          
O        O      0.336100000000     0.512100000000     0.341666666667     0          
O        O      0.354050000000     0.655633333333     0.469866666667     0          
O        O      0.367250000000     0.551666666667     0.453500000000     0          
O        O      0.367000000000     0.619966666667     0.374033333333     0          
O        O      0.250000000000     0.587733333333     0.416666666667     0          
O        O      0.426150000000     0.589100000000     0.430600000000     0          
O        O      0.215250000000     0.506033333333     0.427933333333     0          
O        O      0.213750000000     0.557300000000     0.345800000000     0          
O        O      0.188900000000     0.596100000000     0.423500000000     0          
O        O      0.163900000000     0.512100000000     0.491666666667     0          
O        O      0.145950000000     0.655633333333     0.363466666667     0          
O        O      0.132750000000     0.551666666667     0.379833333333     0          
O        O      0.133000000000     0.619966666667     0.459300000000     0          
O        O      0.073850000000     0.589100000000     0.402733333333     0          
O        O      0.215250000000     0.493966666667     0.594600000000     0          
O        O      0.213750000000     0.442700000000     0.512466666667     0          
O        O      0.188900000000     0.403900000000     0.590166666667     0          
O        O      0.163900000000     0.487900000000     0.658333333333     0          
O        O      0.145950000000     0.344366666667     0.530133333333     0          
O        O      0.132750000000     0.448333333333     0.546500000000     0          
O        O      0.133000000000     0.380033333333     0.625966666667     0          
O        O      0.250000000000     0.412266666667     0.583333333333     0          
O        O      0.073850000000     0.410900000000     0.569400000000     0          
O        O      0.284750000000     0.493966666667     0.572066666667     0          
O        O      0.286250000000     0.442700000000     0.654200000000     0          
O        O      0.311100000000     0.403900000000     0.576500000000     0          
O        O      0.336100000000     0.487900000000     0.508333333333     0          
O        O      0.354050000000     0.344366666667     0.636533333333     0          
O        O      0.367250000000     0.448333333333     0.620166666667     0          
O        O      0.367000000000     0.380033333333     0.540700000000     0          
O        O      0.426150000000     0.410900000000     0.597266666667     0          
O        O      0.034750000000     0.339366666667     0.738733333333     0          
O        O      0.036250000000     0.390633333333     0.820866666667     0          
O        O      0.061100000000     0.429433333333     0.743166666667     0          
O        O      0.086100000000     0.345433333333     0.675000000000     0          
O        O      0.104050000000     0.488966666667     0.803200000000     0          
O        O      0.117250000000     0.385000000000     0.786833333333     0          
O        O      0.117000000000     0.453300000000     0.707366666667     0          
O        O      0.000000000000     0.421066666667     0.750000000000     0          
O        O      0.176150000000     0.422433333333     0.763933333333     0          
O        O      0.465250000000     0.339366666667     0.761266666667     0          
O        O      0.463750000000     0.390633333333     0.679133333333     0          
O        O      0.438900000000     0.429433333333     0.756833333333     0          
O        O      0.413900000000     0.345433333333     0.825000000000     0          
O        O      0.395950000000     0.488966666667     0.696800000000     0          
O        O      0.382750000000     0.385000000000     0.713166666667     0          
O        O      0.383000000000     0.453300000000     0.792633333333     0          
O        O      0.323850000000     0.422433333333     0.736066666667     0          
O        O      0.465250000000     0.660633333333     0.927933333333     0          
O        O      0.463750000000     0.609366666667     0.845800000000     0          
O        O      0.438900000000     0.570566666667     0.923500000000     0          
O        O      0.413900000000     0.654566666667     0.991666666667     0          
O        O      0.395950000000     0.511033333333     0.863466666667     0          
O        O      0.382750000000     0.615000000000     0.879833333333     0          
O        O      0.383000000000     0.546700000000     0.959300000000     0          
O        O      0.000000000000     0.578933333333     0.916666666667     0          
O        O      0.323850000000     0.577566666667     0.902733333333     0          
O        O      0.034750000000     0.660633333333     0.905400000000     0          
O        O      0.036250000000     0.609366666667     0.987533333333     0          
O        O      0.061100000000     0.570566666667     0.909833333333     0          
O        O      0.086100000000     0.654566666667     0.841666666667     0          
O        O      0.104050000000     0.511033333333     0.969866666667     0          
O        O      0.117250000000     0.615000000000     0.953500000000     0          
O        O      0.117000000000     0.546700000000     0.874033333333     0          
O        O      0.176150000000     0.577566666667     0.930600000000     0          
O        O      0.284750000000     0.506033333333     0.738733333333     0          
O        O      0.286250000000     0.557300000000     0.820866666667     0          
O        O      0.311100000000     0.596100000000     0.743166666667     0          
O        O      0.336100000000     0.512100000000     0.675000000000     0          
O        O      0.354050000000     0.655633333333     0.803200000000     0          
O        O      0.367250000000     0.551666666667     0.786833333333     0          
O        O      0.367000000000     0.619966666667     0.707366666667     0          
O        O      0.250000000000     0.587733333333     0.750000000000     0          
O        O      0.426150000000     0.589100000000     0.763933333333     0          
O        O      0.215250000000     0.506033333333     0.761266666667     0          
O        O      0.213750000000     0.557300000000     0.679133333333     0          
O        O      0.188900000000     0.596100000000     0.756833333333     0          
O        O      0.163900000000     0.512100000000     0.825000000000     0          
O        O      0.145950000000     0.655633333333     0.696800000000     0          
O        O      0.132750000000     0.551666666667     0.713166666667     0          
O        O      0.133000000000     0.619966666667     0.792633333333     0          
O        O      0.073850000000     0.589100000000     0.736066666667     0          
O        O      0.215250000000     0.493966666667     0.927933333333     0          
O        O      0.213750000000     0.442700000000     0.845800000000     0          
O        O      0.188900000000     0.403900000000     0.923500000000     0          
O        O      0.163900000000     0.487900000000     0.991666666667     0          
O        O      0.145950000000     0.344366666667     0.863466666667     0          
O        O      0.132750000000     0.448333333333     0.879833333333     0          
O        O      0.133000000000     0.380033333333     0.959300000000     0          
O        O      0.250000000000     0.412266666667     0.916666666667     0          
O        O      0.073850000000     0.410900000000     0.902733333333     0          
O        O      0.284750000000     0.493966666667     0.905400000000     0          
O        O      0.286250000000     0.442700000000     0.987533333333     0          
O        O      0.311100000000     0.403900000000     0.909833333333     0          
O        O      0.336100000000     0.487900000000     0.841666666667     0          
O        O      0.354050000000     0.344366666667     0.969866666667     0          
O        O      0.367250000000     0.448333333333     0.953500000000     0          
O        O      0.367000000000     0.380033333333     0.874033333333     0          
O        O      0.426150000000     0.410900000000     0.930600000000     0          
O        O      0.034750000000     0.672700000000     0.072066666667     0          
O        O      0.036250000000     0.723966666667     0.154200000000     0          
O        O      0.061100000000     0.762766666667     0.076500000000     0          
O        O      0.086100000000     0.678766666667     0.008333333333     0          
O        O      0.104050000000     0.822300000000     0.136533333333     0          
O        O      0.117250000000     0.718333333333     0.120166666667     0          
O        O      0.117000000000     0.786633333333     0.040700000000     0          
O        O      0.000000000000     0.754400000000     0.083333333333     0          
O        O      0.176150000000     0.755766666667     0.097266666667     0          
O        O      0.465250000000     0.672700000000     0.094600000000     0          
O        O      0.463750000000     0.723966666667     0.012466666667     0          
O        O      0.438900000000     0.762766666667     0.090166666667     0          
O        O      0.413900000000     0.678766666667     0.158333333333     0          
O        O      0.395950000000     0.822300000000     0.030133333333     0          
O        O      0.382750000000     0.718333333333     0.046500000000     0          
O        O      0.383000000000     0.786633333333     0.125966666667     0          
O        O      0.323850000000     0.755766666667     0.069400000000     0          
O        O      0.465250000000     0.993966666667     0.261266666667     0          
O        O      0.463750000000     0.942700000000     0.179133333333     0          
O        O      0.438900000000     0.903900000000     0.256833333333     0          
O        O      0.413900000000     0.987900000000     0.325000000000     0          
O        O      0.395950000000     0.844366666667     0.196800000000     0          
O        O      0.382750000000     0.948333333333     0.213166666667     0          
O        O      0.383000000000     0.880033333333     0.292633333333     0          
O        O      0.000000000000     0.912266666667     0.250000000000     0          
O        O      0.323850000000     0.910900000000     0.236066666667     0          
O        O      0.034750000000     0.993966666667     0.238733333333     0          
O        O      0.036250000000     0.942700000000     0.320866666667     0          
O        O      0.061100000000     0.903900000000     0.243166666667     0          
O        O      0.086100000000     0.987900000000     0.175000000000     0          
O        O      0.104050000000     0.844366666667     0.303200000000     0          
O        O      0.117250000000     0.948333333333     0.286833333333     0          
O        O      0.117000000000     0.880033333333     0.207366666667     0          
O        O      0.176150000000     0.910900000000     0.263933333333     0          
O        O      0.284750000000     0.839366666667     0.072066666667     0          
O        O      0.286250000000     0.890633333333     0.154200000000     0          
O        O      0.311100000000     0.929433333333     0.076500000000     0          
O        O      0.336100000000     0.845433333333     0.008333333333     0          
O        O      0.354050000000     0.988966666667     0.136533333333     0          
O        O      0.367250000000     0.885000000000     0.120166666667     0          
O        O      0.367000000000     0.953300000000     0.040700000000     0          
O        O      0.250000000000     0.921066666667     0.083333333333     0          
O        O      0.426150000000     0.922433333333     0.097266666667     0          
O        O      0.215250000000     0.839366666667     0.094600000000     0          
O        O      0.213750000000     0.890633333333     0.012466666667     0          
O        O      0.188900000000     0.929433333333     0.090166666667     0          
O        O      0.163900000000     0.845433333333     0.158333333333     0          
O        O      0.145950000000     0.988966666667     0.030133333333     0          
O        O      0.132750000000     0.885000000000     0.046500000000     0          
O        O      0.133000000000     0.953300000000     0.125966666667     0          
O        O      0.073850000000     0.922433333333     0.069400000000     0          
O        O      0.215250000000     0.827300000000     0.261266666667     0          
O        O      0.213750000000     0.776033333333     0.179133333333     0          
O        O      0.188900000000     0.737233333333     0.256833333333     0          
O        O      0.163900000000     0.821233333333     0.325000000000     0          
O        O      0.145950000000     0.677700000000     0.196800000000     0          
O        O      0.132750000000     0.781666666667     0.213166666667     0          
O        O      0.133000000000     0.713366666667     0.292633333333     0          
O        O      0.250000000000     0.745600000000     0.250000000000     0          
O        O      0.073850000000     0.744233333333     0.236066666667     0          
O        O      0.284750000000     0.827300000000     0.238733333333     0          
O        O      0.286250000000     0.776033333333     0.320866666667     0          
O        O      0.311100000000     0.737233333333     0.243166666667     0          
O        O      0.336100000000     0.821233333333     0.175000000000     0          
O        O      0.354050000000     0.677700000000     0.303200000000     0          
O        O      0.367250000000     0.781666666667     0.286833333333     0          
O        O      0.367000000000     0.713366666667     0.207366666667     0          
O        O      0.426150000000     0.744233333333     0.263933333333     0          
O        O      0.034750000000     0.672700000000     0.405400000000     0          
O        O      0.036250000000     0.723966666667     0.487533333333     0          
O        O      0.061100000000     0.762766666667     0.409833333333     0          
O        O      0.086100000000     0.678766666667     0.341666666667     0          
O        O      0.104050000000     0.822300000000     0.469866666667     0          
O        O      0.117250000000     0.718333333333     0.453500000000     0          
O        O      0.117000000000     0.786633333333     0.374033333333     0          
O        O      0.000000000000     0.754400000000     0.416666666667     0          
O        O      0.176150000000     0.755766666667     0.430600000000     0          
O        O      0.465250000000     0.672700000000     0.427933333333     0          
O        O      0.463750000000     0.723966666667     0.345800000000     0          
O        O      0.438900000000     0.762766666667     0.423500000000     0          
O        O      0.413900000000     0.678766666667     0.491666666667     0          
O        O      0.395950000000     0.822300000000     0.363466666667     0          
O        O      0.382750000000     0.718333333333     0.379833333333     0          
O        O      0.383000000000     0.786633333333     0.459300000000     0          
O        O      0.323850000000     0.755766666667     0.402733333333     0          
O        O      0.465250000000     0.993966666667     0.594600000000     0          
O        O      0.463750000000     0.942700000000     0.512466666667     0          
O        O      0.438900000000     0.903900000000     0.590166666667     0          
O        O      0.413900000000     0.987900000000     0.658333333333     0          
O        O      0.395950000000     0.844366666667     0.530133333333     0          
O        O      0.382750000000     0.948333333333     0.546500000000     0          
O        O      0.383000000000     0.880033333333     0.625966666667     0          
O        O      0.000000000000     0.912266666667     0.583333333333     0          
O        O      0.323850000000     0.910900000000     0.569400000000     0          
O        O      0.034750000000     0.993966666667     0.572066666667     0          
O        O      0.036250000000     0.942700000000     0.654200000000     0          
O        O      0.061100000000     0.903900000000     0.576500000000     0          
O        O      0.086100000000     0.987900000000     0.508333333333     0          
O        O      0.104050000000     0.844366666667     0.636533333333     0          
O        O      0.117250000000     0.948333333333     0.620166666667     0          
O        O      0.117000000000     0.880033333333     0.540700000000     0          
O        O      0.176150000000     0.910900000000     0.597266666667     0          
O        O      0.284750000000     0.839366666667     0.405400000000     0          
O        O      0.286250000000     0.890633333333     0.487533333333     0          
O        O      0.311100000000     0.929433333333     0.409833333333     0          
O        O      0.336100000000     0.845433333333     0.341666666667     0          
O        O      0.354050000000     0.988966666667     0.469866666667     0          
O        O      0.367250000000     0.885000000000     0.453500000000     0          
O        O      0.367000000000     0.953300000000     0.374033333333     0          
O        O      0.250000000000     0.921066666667     0.416666666667     0          
O        O      0.426150000000     0.922433333333     0.430600000000     0          
O        O      0.215250000000     0.839366666667     0.427933333333     0          
O        O      0.213750000000     0.890633333333     0.345800000000     0          
O        O      0.188900000000     0.929433333333     0.423500000000     0          
O        O      0.163900000000     0.845433333333     0.491666666667     0          
O        O      0.145950000000     0.988966666667     0.363466666667     0          
O        O      0.132750000000     0.885000000000     0.379833333333     0          
O        O      0.133000000000     0.953300000000     0.459300000000     0          
O        O      0.073850000000     0.922433333333     0.402733333333     0          
O        O      0.215250000000     0.827300000000     0.594600000000     0          
O        O      0.213750000000     0.776033333333     0.512466666667     0          
O        O      0.188900000000     0.737233333333     0.590166666667     0          
O        O      0.163900000000     0.821233333333     0.658333333333     0          
O        O      0.145950000000     0.677700000000     0.530133333333     0          
O        O      0.132750000000     0.781666666667     0.546500000000     0          
O        O      0.133000000000     0.713366666667     0.625966666667     0          
O        O      0.250000000000     0.745600000000     0.583333333333     0          
O        O      0.073850000000     0.744233333333     0.569400000000     0          
O        O      0.284750000000     0.827300000000     0.572066666667     0          
O        O      0.286250000000     0.776033333333     0.654200000000     0          
O        O      0.311100000000     0.737233333333     0.576500000000     0          
O        O      0.336100000000     0.821233333333     0.508333333333     0          
O        O      0.354050000000     0.677700000000     0.636533333333     0          
O        O      0.367250000000     0.781666666667     0.620166666667     0          
O        O      0.367000000000     0.713366666667     0.540700000000     0          
O        O      0.426150000000     0.744233333333     0.597266666667     0          
O        O      0.034750000000     0.672700000000     0.738733333333     0          
O        O      0.036250000000     0.723966666667     0.820866666667     0          
O        O      0.061100000000     0.762766666667     0.743166666667     0          
O        O      0.086100000000     0.678766666667     0.675000000000     0          
O        O      0.104050000000     0.822300000000     0.803200000000     0          
O        O      0.117250000000     0.718333333333     0.786833333333     0          
O        O      0.117000000000     0.786633333333     0.707366666667     0          
O        O      0.000000000000     0.754400000000     0.750000000000     0          
O        O      0.176150000000     0.755766666667     0.763933333333     0          
O        O      0.465250000000     0.672700000000     0.761266666667     0          
O        O      0.463750000000     0.723966666667     0.679133333333     0          
O        O      0.438900000000     0.762766666667     0.756833333333     0          
O        O      0.413900000000     0.678766666667     0.825000000000     0          
O        O      0.395950000000     0.822300000000     0.696800000000     0          
O        O      0.382750000000     0.718333333333     0.713166666667     0          
O        O      0.383000000000     0.786633333333     0.792633333333     0          
O        O      0.323850000000     0.755766666667     0.736066666667     0          
O        O      0.465250000000     0.993966666667     0.927933333333     0          
O        O      0.463750000000     0.942700000000     0.845800000000     0          
O        O      0.438900000000     0.903900000000     0.923500000000     0          
O        O      0.413900000000     0.987900000000     0.991666666667     0          
O        O      0.395950000000     0.844366666667     0.863466666667     0          
O        O      0.382750000000     0.948333333333     0.879833333333     0          
O        O      0.383000000000     0.880033333333     0.959300000000     0          
O        O      0.000000000000     0.912266666667     0.916666666667     0          
O        O      0.323850000000     0.910900000000     0.902733333333     0          
O        O      0.034750000000     0.993966666667     0.905400000000     0          
O        O      0.036250000000     0.942700000000     0.987533333333     0          
O        O      0.061100000000     0.903900000000     0.909833333333     0          
O        O      0.086100000000     0.987900000000     0.841666666667     0          
O        O      0.104050000000     0.844366666667     0.969866666667     0          
O        O      0.117250000000     0.948333333333     0.953500000000     0          
O        O      0.117000000000     0.880033333333     0.874033333333     0          
O        O      0.176150000000     0.910900000000     0.930600000000     0          
O        O      0.284750000000     0.839366666667     0.738733333333     0          
O        O      0.286250000000     0.890633333333     0.820866666667     0          
O        O      0.311100000000     0.929433333333     0.743166666667     0          
O        O      0.336100000000     0.845433333333     0.675000000000     0          
O        O      0.354050000000     0.988966666667     0.803200000000     0          
O        O      0.367250000000     0.885000000000     0.786833333333     0          
O        O      0.367000000000     0.953300000000     0.707366666667     0          
O        O      0.250000000000     0.921066666667     0.750000000000     0          
O        O      0.426150000000     0.922433333333     0.763933333333     0          
O        O      0.215250000000     0.839366666667     0.761266666667     0          
O        O      0.213750000000     0.890633333333     0.679133333333     0          
O        O      0.188900000000     0.929433333333     0.756833333333     0          
O        O      0.163900000000     0.845433333333     0.825000000000     0          
O        O      0.145950000000     0.988966666667     0.696800000000     0          
O        O      0.132750000000     0.885000000000     0.713166666667     0          
O        O      0.133000000000     0.953300000000     0.792633333333     0          
O        O      0.073850000000     0.922433333333     0.736066666667     0          
O        O      0.215250000000     0.827300000000     0.927933333333     0          
O        O      0.213750000000     0.776033333333     0.845800000000     0          
O        O      0.188900000000     0.737233333333     0.923500000000     0          
O        O      0.163900000000     0.821233333333     0.991666666667     0          
O        O      0.145950000000     0.677700000000     0.863466666667     0          
O        O      0.132750000000     0.781666666667     0.879833333333     0          
O        O      0.133000000000     0.713366666667     0.959300000000     0          
O        O      0.250000000000     0.745600000000     0.916666666667     0          
O        O      0.073850000000     0.744233333333     0.902733333333     0          
O        O      0.284750000000     0.827300000000     0.905400000000     0          
O        O      0.286250000000     0.776033333333     0.987533333333     0          
O        O      0.311100000000     0.737233333333     0.909833333333     0          
O        O      0.336100000000     0.821233333333     0.841666666667     0          
O        O      0.354050000000     0.677700000000     0.969866666667     0          
O        O      0.367250000000     0.781666666667     0.953500000000     0          
O        O      0.367000000000     0.713366666667     0.874033333333     0          
O        O      0.426150000000     0.744233333333     0.930600000000     0          
O        O      0.534750000000     0.006033333333     0.072066666667     0          
O        O      0.536250000000     0.057300000000     0.154200000000     0          
O        O      0.561100000000     0.096100000000     0.076500000000     0          
O        O      0.586100000000     0.012100000000     0.008333333333     0          
O        O      0.604050000000     0.155633333333     0.136533333333     0          
O        O      0.617250000000     0.051666666667     0.120166666667     0          
O        O      0.617000000000     0.119966666667     0.040700000000     0          
O        O      0.500000000000     0.087733333333     0.083333333333     0          
O        O      0.676150000000     0.089100000000     0.097266666667     0          
O        O      0.965250000000     0.006033333333     0.094600000000     0          
O        O      0.963750000000     0.057300000000     0.012466666667     0          
O        O      0.938900000000     0.096100000000     0.090166666667     0          
O        O      0.913900000000     0.012100000000     0.158333333333     0          
O        O      0.895950000000     0.155633333333     0.030133333333     0          
O        O      0.882750000000     0.051666666667     0.046500000000     0          
O        O      0.883000000000     0.119966666667     0.125966666667     0          
O        O      0.823850000000     0.089100000000     0.069400000000     0          
O        O      0.965250000000     0.327300000000     0.261266666667     0          
O        O      0.963750000000     0.276033333333     0.179133333333     0          
O        O      0.938900000000     0.237233333333     0.256833333333     0          
O        O      0.913900000000     0.321233333333     0.325000000000     0          
O        O      0.895950000000     0.177700000000     0.196800000000     0          
O        O      0.882750000000     0.281666666667     0.213166666667     0          
O        O      0.883000000000     0.213366666667     0.292633333333     0          
O        O      0.500000000000     0.245600000000     0.250000000000     0          
O        O      0.823850000000     0.244233333333     0.236066666667     0          
O        O      0.534750000000     0.327300000000     0.238733333333     0          
O        O      0.536250000000     0.276033333333     0.320866666667     0          
O        O      0.561100000000     0.237233333333     0.243166666667     0          
O        O      0.586100000000     0.321233333333     0.175000000000     0          
O        O      0.604050000000     0.177700000000     0.303200000000     0          
O        O      0.617250000000     0.281666666667     0.286833333333     0          
O        O      0.617000000000     0.213366666667     0.207366666667     0          
O        O      0.676150000000     0.244233333333     0.263933333333     0          
O        O      0.784750000000     0.172700000000     0.072066666667     0          
O        O      0.786250000000     0.223966666667     0.154200000000     0          
O        O      0.811100000000     0.262766666667     0.076500000000     0          
O        O      0.836100000000     0.178766666667     0.008333333333     0          
O        O      0.854050000000     0.322300000000     0.136533333333     0          
O        O      0.867250000000     0.218333333333     0.120166666667     0          
O        O      0.867000000000     0.286633333333     0.040700000000     0          
O        O      0.750000000000     0.254400000000     0.083333333333     0          
O        O      0.926150000000     0.255766666667     0.097266666667     0          
O        O      0.715250000000     0.172700000000     0.094600000000     0          
O        O      0.713750000000     0.223966666667     0.012466666667     0          
O        O      0.688900000000     0.262766666667     0.090166666667     0          
O        O      0.663900000000     0.178766666667     0.158333333333     0          
O        O      0.645950000000     0.322300000000     0.030133333333     0          
O        O      0.632750000000     0.218333333333     0.046500000000     0          
O        O      0.633000000000     0.286633333333     0.125966666667     0          
O        O      0.573850000000     0.255766666667     0.069400000000     0          
O        O      0.715250000000     0.160633333333     0.261266666667     0          
O        O      0.713750000000     0.109366666667     0.179133333333     0          
O        O      0.688900000000     0.070566666667     0.256833333333     0          
O        O      0.663900000000     0.154566666667     0.325000000000     0          
O        O      0.645950000000     0.011033333333     0.196800000000     0          
O        O      0.632750000000     0.115000000000     0.213166666667     0          
O        O      0.633000000000     0.046700000000     0.292633333333     0          
O        O      0.750000000000     0.078933333333     0.250000000000     0          
O        O      0.573850000000     0.077566666667     0.236066666667     0          
O        O      0.784750000000     0.160633333333     0.238733333333     0          
O        O      0.786250000000     0.109366666667     0.320866666667     0          
O        O      0.811100000000     0.070566666667     0.243166666667     0          
O        O      0.836100000000     0.154566666667     0.175000000000     0          
O        O      0.854050000000     0.011033333333     0.303200000000     0          
O        O      0.867250000000     0.115000000000     0.286833333333     0          
O        O      0.867000000000     0.046700000000     0.207366666667     0          
O        O      0.926150000000     0.077566666667     0.263933333333     0          
O        O      0.534750000000     0.006033333333     0.405400000000     0          
O        O      0.536250000000     0.057300000000     0.487533333333     0          
O        O      0.561100000000     0.096100000000     0.409833333333     0          
O        O      0.586100000000     0.012100000000     0.341666666667     0          
O        O      0.604050000000     0.155633333333     0.469866666667     0          
O        O      0.617250000000     0.051666666667     0.453500000000     0          
O        O      0.617000000000     0.119966666667     0.374033333333     0          
O        O      0.500000000000     0.087733333333     0.416666666667     0          
O        O      0.676150000000     0.089100000000     0.430600000000     0          
O        O      0.965250000000     0.006033333333     0.427933333333     0          
O        O      0.963750000000     0.057300000000     0.345800000000     0          
O        O      0.938900000000     0.096100000000     0.423500000000     0          
O        O      0.913900000000     0.012100000000     0.491666666667     0          
O        O      0.895950000000     0.155633333333     0.363466666667     0          
O        O      0.882750000000     0.051666666667     0.379833333333     0          
O        O      0.883000000000     0.119966666667     0.459300000000     0          
O        O      0.823850000000     0.089100000000     0.402733333333     0          
O        O      0.965250000000     0.327300000000     0.594600000000     0          
O        O      0.963750000000     0.276033333333     0.512466666667     0          
O        O      0.938900000000     0.237233333333     0.590166666667     0          
O        O      0.913900000000     0.321233333333     0.658333333333     0          
O        O      0.895950000000     0.177700000000     0.530133333333     0          
O        O      0.882750000000     0.281666666667     0.546500000000     0          
O        O      0.883000000000     0.213366666667     0.625966666667     0          
O        O      0.500000000000     0.245600000000     0.583333333333     0          
O        O      0.823850000000     0.244233333333     0.569400000000     0          
O        O      0.534750000000     0.327300000000     0.572066666667     0          
O        O      0.536250000000     0.276033333333     0.654200000000     0          
O        O      0.561100000000     0.237233333333     0.576500000000     0          
O        O      0.586100000000     0.321233333333     0.508333333333     0          
O        O      0.604050000000     0.177700000000     0.636533333333     0          
O        O      0.617250000000     0.281666666667     0.620166666667     0          
O        O      0.617000000000     0.213366666667     0.540700000000     0          
O        O      0.676150000000     0.244233333333     0.597266666667     0          
O        O      0.784750000000     0.172700000000     0.405400000000     0          
O        O      0.786250000000     0.223966666667     0.487533333333     0          
O        O      0.811100000000     0.262766666667     0.409833333333     0          
O        O      0.836100000000     0.178766666667     0.341666666667     0          
O        O      0.854050000000     0.322300000000     0.469866666667     0          
O        O      0.867250000000     0.218333333333     0.453500000000     0          
O        O      0.867000000000     0.286633333333     0.374033333333     0          
O        O      0.750000000000     0.254400000000     0.416666666667     0          
O        O      0.926150000000     0.255766666667     0.430600000000     0          
O        O      0.715250000000     0.172700000000     0.427933333333     0          
O        O      0.713750000000     0.223966666667     0.345800000000     0          
O        O      0.688900000000     0.262766666667     0.423500000000     0          
O        O      0.663900000000     0.178766666667     0.491666666667     0          
O        O      0.645950000000     0.322300000000     0.363466666667     0          
O        O      0.632750000000     0.218333333333     0.379833333333     0          
O        O      0.633000000000     0.286633333333     0.459300000000     0          
O        O      0.573850000000     0.255766666667     0.402733333333     0          
O        O      0.715250000000     0.160633333333     0.594600000000     0          
O        O      0.713750000000     0.109366666667     0.512466666667     0          
O        O      0.688900000000     0.070566666667     0.590166666667     0          
O        O      0.663900000000     0.154566666667     0.658333333333     0          
O        O      0.645950000000     0.011033333333     0.530133333333     0          
O        O      0.632750000000     0.115000000000     0.546500000000     0          
O        O      0.633000000000     0.046700000000     0.625966666667     0          
O        O      0.750000000000     0.078933333333     0.583333333333     0          
O        O      0.573850000000     0.077566666667     0.569400000000     0          
O        O      0.784750000000     0.160633333333     0.572066666667     0          
O        O      0.786250000000     0.109366666667     0.654200000000     0          
O        O      0.811100000000     0.070566666667     0.576500000000     0          
O        O      0.836100000000     0.154566666667     0.508333333333     0          
O        O      0.854050000000     0.011033333333     0.636533333333     0          
O        O      0.867250000000     0.115000000000     0.620166666667     0          
O        O      0.867000000000     0.046700000000     0.540700000000     0          
O        O      0.926150000000     0.077566666667     0.597266666667     0          
O        O      0.534750000000     0.006033333333     0.738733333333     0          
O        O      0.536250000000     0.057300000000     0.820866666667     0          
O        O      0.561100000000     0.096100000000     0.743166666667     0          
O        O      0.586100000000     0.012100000000     0.675000000000     0          
O        O      0.604050000000     0.155633333333     0.803200000000     0          
O        O      0.617250000000     0.051666666667     0.786833333333     0          
O        O      0.617000000000     0.119966666667     0.707366666667     0          
O        O      0.500000000000     0.087733333333     0.750000000000     0          
O        O      0.676150000000     0.089100000000     0.763933333333     0          
O        O      0.965250000000     0.006033333333     0.761266666667     0          
O        O      0.963750000000     0.057300000000     0.679133333333     0          
O        O      0.938900000000     0.096100000000     0.756833333333     0          
O        O      0.913900000000     0.012100000000     0.825000000000     0          
O        O      0.895950000000     0.155633333333     0.696800000000     0          
O        O      0.882750000000     0.051666666667     0.713166666667     0          
O        O      0.883000000000     0.119966666667     0.792633333333     0          
O        O      0.823850000000     0.089100000000     0.736066666667     0          
O        O      0.965250000000     0.327300000000     0.927933333333     0          
O        O      0.963750000000     0.276033333333     0.845800000000     0          
O        O      0.938900000000     0.237233333333     0.923500000000     0          
O        O      0.913900000000     0.321233333333     0.991666666667     0          
O        O      0.895950000000     0.177700000000     0.863466666667     0          
O        O      0.882750000000     0.281666666667     0.879833333333     0          
O        O      0.883000000000     0.213366666667     0.959300000000     0          
O        O      0.500000000000     0.245600000000     0.916666666667     0          
O        O      0.823850000000     0.244233333333     0.902733333333     0          
O        O      0.534750000000     0.327300000000     0.905400000000     0          
O        O      0.536250000000     0.276033333333     0.987533333333     0          
O        O      0.561100000000     0.237233333333     0.909833333333     0          
O        O      0.586100000000     0.321233333333     0.841666666667     0          
O        O      0.604050000000     0.177700000000     0.969866666667     0          
O        O      0.617250000000     0.281666666667     0.953500000000     0          
O        O      0.617000000000     0.213366666667     0.874033333333     0          
O        O      0.676150000000     0.244233333333     0.930600000000     0          
O        O      0.784750000000     0.172700000000     0.738733333333     0          
O        O      0.786250000000     0.223966666667     0.820866666667     0          
O        O      0.811100000000     0.262766666667     0.743166666667     0          
O        O      0.836100000000     0.178766666667     0.675000000000     0          
O        O      0.854050000000     0.322300000000     0.803200000000     0          
O        O      0.867250000000     0.218333333333     0.786833333333     0          
O        O      0.867000000000     0.286633333333     0.707366666667     0          
O        O      0.750000000000     0.254400000000     0.750000000000     0          
O        O      0.926150000000     0.255766666667     0.763933333333     0          
O        O      0.715250000000     0.172700000000     0.761266666667     0          
O        O      0.713750000000     0.223966666667     0.679133333333     0          
O        O      0.688900000000     0.262766666667     0.756833333333     0          
O        O      0.663900000000     0.178766666667     0.825000000000     0          
O        O      0.645950000000     0.322300000000     0.696800000000     0          
O        O      0.632750000000     0.218333333333     0.713166666667     0          
O        O      0.633000000000     0.286633333333     0.792633333333     0          
O        O      0.573850000000     0.255766666667     0.736066666667     0          
O        O      0.715250000000     0.160633333333     0.927933333333     0          
O        O      0.713750000000     0.109366666667     0.845800000000     0          
O        O      0.688900000000     0.070566666667     0.923500000000     0          
O        O      0.663900000000     0.154566666667     0.991666666667     0          
O        O      0.645950000000     0.011033333333     0.863466666667     0          
O        O      0.632750000000     0.115000000000     0.879833333333     0          
O        O      0.633000000000     0.046700000000     0.959300000000     0          
O        O      0.750000000000     0.078933333333     0.916666666667     0          
O        O      0.573850000000     0.077566666667     0.902733333333     0          
O        O      0.784750000000     0.160633333333     0.905400000000     0          
O        O      0.786250000000     0.109366666667     0.987533333333     0          
O        O      0.811100000000     0.070566666667     0.909833333333     0          
O        O      0.836100000000     0.154566666667     0.841666666667     0          
O        O      0.854050000000     0.011033333333     0.969866666667     0          
O        O      0.867250000000     0.115000000000     0.953500000000     0          
O        O      0.867000000000     0.046700000000     0.874033333333     0          
O        O      0.926150000000     0.077566666667     0.930600000000     0          
O        O      0.534750000000     0.339366666667     0.072066666667     0          
O        O      0.536250000000     0.390633333333     0.154200000000     0          
O        O      0.561100000000     0.429433333333     0.076500000000     0          
O        O      0.586100000000     0.345433333333     0.008333333333     0          
O        O      0.604050000000     0.488966666667     0.136533333333     0          
O        O      0.617250000000     0.385000000000     0.120166666667     0          
O        O      0.617000000000     0.453300000000     0.040700000000     0          
O        O      0.500000000000     0.421066666667     0.083333333333     0          
O        O      0.676150000000     0.422433333333     0.097266666667     0          
O        O      0.965250000000     0.339366666667     0.094600000000     0          
O        O      0.963750000000     0.390633333333     0.012466666667     0          
O        O      0.938900000000     0.429433333333     0.090166666667     0          
O        O      0.913900000000     0.345433333333     0.158333333333     0          
O        O      0.895950000000     0.488966666667     0.030133333333     0          
O        O      0.882750000000     0.385000000000     0.046500000000     0          
O        O      0.883000000000     0.453300000000     0.125966666667     0          
O        O      0.823850000000     0.422433333333     0.069400000000     0          
O        O      0.965250000000     0.660633333333     0.261266666667     0          
O        O      0.963750000000     0.609366666667     0.179133333333     0          
O        O      0.938900000000     0.570566666667     0.256833333333     0          
O        O      0.913900000000     0.654566666667     0.325000000000     0          
O        O      0.895950000000     0.511033333333     0.196800000000     0          
O        O      0.882750000000     0.615000000000     0.213166666667     0          
O        O      0.883000000000     0.546700000000     0.292633333333     0          
O        O      0.500000000000     0.578933333333     0.250000000000     0          
O        O      0.823850000000     0.577566666667     0.236066666667     0          
O        O      0.534750000000     0.660633333333     0.238733333333     0          
O        O      0.536250000000     0.609366666667     0.320866666667     0          
O        O      0.561100000000     0.570566666667     0.243166666667     0          
O        O      0.586100000000     0.654566666667     0.175000000000     0          
O        O      0.604050000000     0.511033333333     0.303200000000     0          
O        O      0.617250000000     0.615000000000     0.286833333333     0          
O        O      0.617000000000     0.546700000000     0.207366666667     0          
O        O      0.676150000000     0.577566666667     0.263933333333     0          
O        O      0.784750000000     0.506033333333     0.072066666667     0          
O        O      0.786250000000     0.557300000000     0.154200000000     0          
O        O      0.811100000000     0.596100000000     0.076500000000     0          
O        O      0.836100000000     0.512100000000     0.008333333333     0          
O        O      0.854050000000     0.655633333333     0.136533333333     0          
O        O      0.867250000000     0.551666666667     0.120166666667     0          
O        O      0.867000000000     0.619966666667     0.040700000000     0          
O        O      0.750000000000     0.587733333333     0.083333333333     0          
O        O      0.926150000000     0.589100000000     0.097266666667     0          
O        O      0.715250000000     0.506033333333     0.094600000000     0          
O        O      0.713750000000     0.557300000000     0.012466666667     0          
O        O      0.688900000000     0.596100000000     0.090166666667     0          
O        O      0.663900000000     0.512100000000     0.158333333333     0          
O        O      0.645950000000     0.655633333333     0.030133333333     0          
O        O      0.632750000000     0.551666666667     0.046500000000     0          
O        O      0.633000000000     0.619966666667     0.125966666667     0          
O        O      0.573850000000     0.589100000000     0.069400000000     0          
O        O      0.715250000000     0.493966666667     0.261266666667     0          
O        O      0.713750000000     0.442700000000     0.179133333333     0          
O        O      0.688900000000     0.403900000000     0.256833333333     0          
O        O      0.663900000000     0.487900000000     0.325000000000     0          
O        O      0.645950000000     0.344366666667     0.196800000000     0          
O        O      0.632750000000     0.448333333333     0.213166666667     0          
O        O      0.633000000000     0.380033333333     0.292633333333     0          
O        O      0.750000000000     0.412266666667     0.250000000000     0          
O        O      0.573850000000     0.410900000000     0.236066666667     0          
O        O      0.784750000000     0.493966666667     0.238733333333     0          
O        O      0.786250000000     0.442700000000     0.320866666667     0          
O        O      0.811100000000     0.403900000000     0.243166666667     0          
O        O      0.836100000000     0.487900000000     0.175000000000     0          
O        O      0.854050000000     0.344366666667     0.303200000000     0          
O        O      0.867250000000     0.448333333333     0.286833333333     0          
O        O      0.867000000000     0.380033333333     0.207366666667     0          
O        O      0.926150000000     0.410900000000     0.263933333333     0          
O        O      0.534750000000     0.339366666667     0.405400000000     0          
O        O      0.536250000000     0.390633333333     0.487533333333     0          
O        O      0.561100000000     0.429433333333     0.409833333333     0          
O        O      0.586100000000     0.345433333333     0.341666666667     0          
O        O      0.604050000000     0.488966666667     0.469866666667     0          
O        O      0.617250000000     0.385000000000     0.453500000000     0          
O        O      0.617000000000     0.453300000000     0.374033333333     0          
O        O      0.500000000000     0.421066666667     0.416666666667     0          
O        O      0.676150000000     0.422433333333     0.430600000000     0          
O        O      0.965250000000     0.339366666667     0.427933333333     0          
O        O      0.963750000000     0.390633333333     0.345800000000     0          
O        O      0.938900000000     0.429433333333     0.423500000000     0          
O        O      0.913900000000     0.345433333333     0.491666666667     0          
O        O      0.895950000000     0.488966666667     0.363466666667     0          
O        O      0.882750000000     0.385000000000     0.379833333333     0          
O        O      0.883000000000     0.453300000000     0.459300000000     0          
O        O      0.823850000000     0.422433333333     0.402733333333     0          
O        O      0.965250000000     0.660633333333     0.594600000000     0          
O        O      0.963750000000     0.609366666667     0.512466666667     0          
O        O      0.938900000000     0.570566666667     0.590166666667     0          
O        O      0.913900000000     0.654566666667     0.658333333333     0          
O        O      0.895950000000     0.511033333333     0.530133333333     0          
O        O      0.882750000000     0.615000000000     0.546500000000     0          
O        O      0.883000000000     0.546700000000     0.625966666667     0          
O        O      0.500000000000     0.578933333333     0.583333333333     0          
O        O      0.823850000000     0.577566666667     0.569400000000     0          
O        O      0.534750000000     0.660633333333     0.572066666667     0          
O        O      0.536250000000     0.609366666667     0.654200000000     0          
O        O      0.561100000000     0.570566666667     0.576500000000     0          
O        O      0.586100000000     0.654566666667     0.508333333333     0          
O        O      0.604050000000     0.511033333333     0.636533333333     0          
O        O      0.617250000000     0.615000000000     0.620166666667     0          
O        O      0.617000000000     0.546700000000     0.540700000000     0          
O        O      0.676150000000     0.577566666667     0.597266666667     0          
O        O      0.784750000000     0.506033333333     0.405400000000     0          
O        O      0.786250000000     0.557300000000     0.487533333333     0          
O        O      0.811100000000     0.596100000000     0.409833333333     0          
O        O      0.836100000000     0.512100000000     0.341666666667     0          
O        O      0.854050000000     0.655633333333     0.469866666667     0          
O        O      0.867250000000     0.551666666667     0.453500000000     0          
O        O      0.867000000000     0.619966666667     0.374033333333     0          
O        O      0.750000000000     0.587733333333     0.416666666667     0          
O        O      0.926150000000     0.589100000000     0.430600000000     0          
O        O      0.715250000000     0.506033333333     0.427933333333     0          
O        O      0.713750000000     0.557300000000     0.345800000000     0          
O        O      0.688900000000     0.596100000000     0.423500000000     0          
O        O      0.663900000000     0.512100000000     0.491666666667     0          
O        O      0.645950000000     0.655633333333     0.363466666667     0          
O        O      0.632750000000     0.551666666667     0.379833333333     0          
O        O      0.633000000000     0.619966666667     0.459300000000     0          
O        O      0.573850000000     0.589100000000     0.402733333333     0          
O        O      0.715250000000     0.493966666667     0.594600000000     0          
O        O      0.713750000000     0.442700000000     0.512466666667     0          
O        O      0.688900000000     0.403900000000     0.590166666667     0          
O        O      0.663900000000     0.487900000000     0.658333333333     0          
O        O      0.645950000000     0.344366666667     0.530133333333     0          
O        O      0.632750000000     0.448333333333     0.546500000000     0          
O        O      0.633000000000     0.380033333333     0.625966666667     0          
O        O      0.750000000000     0.412266666667     0.583333333333     0          
O        O      0.573850000000     0.410900000000     0.569400000000     0          
O        O      0.784750000000     0.493966666667     0.572066666667     0          
O        O      0.786250000000     0.442700000000     0.654200000000     0          
O        O      0.811100000000     0.403900000000     0.576500000000     0          
O        O      0.836100000000     0.487900000000     0.508333333333     0          
O        O      0.854050000000     0.344366666667     0.636533333333     0          
O        O      0.867250000000     0.448333333333     0.620166666667     0          
O        O      0.867000000000     0.380033333333     0.540700000000     0          
O        O      0.926150000000     0.410900000000     0.597266666667     0          
O        O      0.534750000000     0.339366666667     0.738733333333     0          
O        O      0.536250000000     0.390633333333     0.820866666667     0          
O        O      0.561100000000     0.429433333333     0.743166666667     0          
O        O      0.586100000000     0.345433333333     0.675000000000     0          
O        O      0.604050000000     0.488966666667     0.803200000000     0          
O        O      0.617250000000     0.385000000000     0.786833333333     0          
O        O      0.617000000000     0.453300000000     0.707366666667     0          
O        O      0.500000000000     0.421066666667     0.750000000000     0          
O        O      0.676150000000     0.422433333333     0.763933333333     0          
O        O      0.965250000000     0.339366666667     0.761266666667     0          
O        O      0.963750000000     0.390633333333     0.679133333333     0          
O        O      0.938900000000     0.429433333333     0.756833333333     0          
O        O      0.913900000000     0.345433333333     0.825000000000     0          
O        O      0.895950000000     0.488966666667     0.696800000000     0          
O        O      0.882750000000     0.385000000000     0.713166666667     0          
O        O      0.883000000000     0.453300000000     0.792633333333     0          
O        O      0.823850000000     0.422433333333     0.736066666667     0          
O        O      0.965250000000     0.660633333333     0.927933333333     0          
O        O      0.963750000000     0.609366666667     0.845800000000     0          
O        O      0.938900000000     0.570566666667     0.923500000000     0          
O        O      0.913900000000     0.654566666667     0.991666666667     0          
O        O      0.895950000000     0.511033333333     0.863466666667     0          
O        O      0.882750000000     0.615000000000     0.879833333333     0          
O        O      0.883000000000     0.546700000000     0.959300000000     0          
O        O      0.500000000000     0.578933333333     0.916666666667     0          
O        O      0.823850000000     0.577566666667     0.902733333333     0          
O        O      0.534750000000     0.660633333333     0.905400000000     0          
O        O      0.536250000000     0.609366666667     0.987533333333     0          
O        O      0.561100000000     0.570566666667     0.909833333333     0          
O        O      0.586100000000     0.654566666667     0.841666666667     0          
O        O      0.604050000000     0.511033333333     0.969866666667     0          
O        O      0.617250000000     0.615000000000     0.953500000000     0          
O        O      0.617000000000     0.546700000000     0.874033333333     0          
O        O      0.676150000000     0.577566666667     0.930600000000     0          
O        O      0.784750000000     0.506033333333     0.738733333333     0          
O        O      0.786250000000     0.557300000000     0.820866666667     0          
O        O      0.811100000000     0.596100000000     0.743166666667     0          
O        O      0.836100000000     0.512100000000     0.675000000000     0          
O        O      0.854050000000     0.655633333333     0.803200000000     0          
O        O      0.867250000000     0.551666666667     0.786833333333     0          
O        O      0.867000000000     0.619966666667     0.707366666667     0          
O        O      0.750000000000     0.587733333333     0.750000000000     0          
O        O      0.926150000000     0.589100000000     0.763933333333     0          
O        O      0.715250000000     0.506033333333     0.761266666667     0          
O        O      0.713750000000     0.557300000000     0.679133333333     0          
O        O      0.688900000000     0.596100000000     0.756833333333     0          
O        O      0.663900000000     0.512100000000     0.825000000000     0          
O        O      0.645950000000     0.655633333333     0.696800000000     0          
O        O      0.632750000000     0.551666666667     0.713166666667     0          
O        O      0.633000000000     0.619966666667     0.792633333333     0          
O        O      0.573850000000     0.589100000000     0.736066666667     0          
O        O      0.715250000000     0.493966666667     0.927933333333     0          
O        O      0.713750000000     0.442700000000     0.845800000000     0          
O        O      0.688900000000     0.403900000000     0.923500000000     0          
O        O      0.663900000000     0.487900000000     0.991666666667     0          
O        O      0.645950000000     0.344366666667     0.863466666667     0          
O        O      0.632750000000     0.448333333333     0.879833333333     0          
O        O      0.633000000000     0.380033333333     0.959300000000     0          
O        O      0.750000000000     0.412266666667     0.916666666667     0          
O        O      0.573850000000     0.410900000000     0.902733333333     0          
O        O      0.784750000000     0.493966666667     0.905400000000     0          
O        O      0.786250000000     0.442700000000     0.987533333333     0          
O        O      0.811100000000     0.403900000000     0.909833333333     0          
O        O      0.836100000000     0.487900000000     0.841666666667     0          
O        O      0.854050000000     0.344366666667     0.969866666667     0          
O        O      0.867250000000     0.448333333333     0.953500000000     0          
O        O      0.867000000000     0.380033333333     0.874033333333     0          
O        O      0.926150000000     0.410900000000     0.930600000000     0          
O        O      0.534750000000     0.672700000000     0.072066666667     0          
O        O      0.536250000000     0.723966666667     0.154200000000     0          
O        O      0.561100000000     0.762766666667     0.076500000000     0          
O        O      0.586100000000     0.678766666667     0.008333333333     0          
O        O      0.604050000000     0.822300000000     0.136533333333     0          
O        O      0.617250000000     0.718333333333     0.120166666667     0          
O        O      0.617000000000     0.786633333333     0.040700000000     0          
O        O      0.500000000000     0.754400000000     0.083333333333     0          
O        O      0.676150000000     0.755766666667     0.097266666667     0          
O        O      0.965250000000     0.672700000000     0.094600000000     0          
O        O      0.963750000000     0.723966666667     0.012466666667     0          
O        O      0.938900000000     0.762766666667     0.090166666667     0          
O        O      0.913900000000     0.678766666667     0.158333333333     0          
O        O      0.895950000000     0.822300000000     0.030133333333     0          
O        O      0.882750000000     0.718333333333     0.046500000000     0          
O        O      0.883000000000     0.786633333333     0.125966666667     0          
O        O      0.823850000000     0.755766666667     0.069400000000     0          
O        O      0.965250000000     0.993966666667     0.261266666667     0          
O        O      0.963750000000     0.942700000000     0.179133333333     0          
O        O      0.938900000000     0.903900000000     0.256833333333     0          
O        O      0.913900000000     0.987900000000     0.325000000000     0          
O        O      0.895950000000     0.844366666667     0.196800000000     0          
O        O      0.882750000000     0.948333333333     0.213166666667     0          
O        O      0.883000000000     0.880033333333     0.292633333333     0          
O        O      0.500000000000     0.912266666667     0.250000000000     0          
O        O      0.823850000000     0.910900000000     0.236066666667     0          
O        O      0.534750000000     0.993966666667     0.238733333333     0          
O        O      0.536250000000     0.942700000000     0.320866666667     0          
O        O      0.561100000000     0.903900000000     0.243166666667     0          
O        O      0.586100000000     0.987900000000     0.175000000000     0          
O        O      0.604050000000     0.844366666667     0.303200000000     0          
O        O      0.617250000000     0.948333333333     0.286833333333     0          
O        O      0.617000000000     0.880033333333     0.207366666667     0          
O        O      0.676150000000     0.910900000000     0.263933333333     0          
O        O      0.784750000000     0.839366666667     0.072066666667     0          
O        O      0.786250000000     0.890633333333     0.154200000000     0          
O        O      0.811100000000     0.929433333333     0.076500000000     0          
O        O      0.836100000000     0.845433333333     0.008333333333     0          
O        O      0.854050000000     0.988966666667     0.136533333333     0          
O        O      0.867250000000     0.885000000000     0.120166666667     0          
O        O      0.867000000000     0.953300000000     0.040700000000     0          
O        O      0.750000000000     0.921066666667     0.083333333333     0          
O        O      0.926150000000     0.922433333333     0.097266666667     0          
O        O      0.715250000000     0.839366666667     0.094600000000     0          
O        O      0.713750000000     0.890633333333     0.012466666667     0          
O        O      0.688900000000     0.929433333333     0.090166666667     0          
O        O      0.663900000000     0.845433333333     0.158333333333     0          
O        O      0.645950000000     0.988966666667     0.030133333333     0          
O        O      0.632750000000     0.885000000000     0.046500000000     0          
O        O      0.633000000000     0.953300000000     0.125966666667     0          
O        O      0.573850000000     0.922433333333     0.069400000000     0          
O        O      0.715250000000     0.827300000000     0.261266666667     0          
O        O      0.713750000000     0.776033333333     0.179133333333     0          
O        O      0.688900000000     0.737233333333     0.256833333333     0          
O        O      0.663900000000     0.821233333333     0.325000000000     0          
O        O      0.645950000000     0.677700000000     0.196800000000     0          
O        O      0.632750000000     0.781666666667     0.213166666667     0          
O        O      0.633000000000     0.713366666667     0.292633333333     0          
O        O      0.750000000000     0.745600000000     0.250000000000     0          
O        O      0.573850000000     0.744233333333     0.236066666667     0          
O        O      0.784750000000     0.827300000000     0.238733333333     0          
O        O      0.786250000000     0.776033333333     0.320866666667     0          
O        O      0.811100000000     0.737233333333     0.243166666667     0          
O        O      0.836100000000     0.821233333333     0.175000000000     0          
O        O      0.854050000000     0.677700000000     0.303200000000     0          
O        O      0.867250000000     0.781666666667     0.286833333333     0          
O        O      0.867000000000     0.713366666667     0.207366666667     0          
O        O      0.926150000000     0.744233333333     0.263933333333     0          
O        O      0.534750000000     0.672700000000     0.405400000000     0          
O        O      0.536250000000     0.723966666667     0.487533333333     0          
O        O      0.561100000000     0.762766666667     0.409833333333     0          
O        O      0.586100000000     0.678766666667     0.341666666667     0          
O        O      0.604050000000     0.822300000000     0.469866666667     0          
O        O      0.617250000000     0.718333333333     0.453500000000     0          
O        O      0.617000000000     0.786633333333     0.374033333333     0          
O        O      0.500000000000     0.754400000000     0.416666666667     0          
O        O      0.676150000000     0.755766666667     0.430600000000     0          
O        O      0.965250000000     0.672700000000     0.427933333333     0          
O        O      0.963750000000     0.723966666667     0.345800000000     0          
O        O      0.938900000000     0.762766666667     0.423500000000     0          
O        O      0.913900000000     0.678766666667     0.491666666667     0          
O        O      0.895950000000     0.822300000000     0.363466666667     0          
O        O      0.882750000000     0.718333333333     0.379833333333     0          
O        O      0.883000000000     0.786633333333     0.459300000000     0          
O        O      0.823850000000     0.755766666667     0.402733333333     0          
O        O      0.965250000000     0.993966666667     0.594600000000     0          
O        O      0.963750000000     0.942700000000     0.512466666667     0          
O        O      0.938900000000     0.903900000000     0.590166666667     0          
O        O      0.913900000000     0.987900000000     0.658333333333     0          
O        O      0.895950000000     0.844366666667     0.530133333333     0          
O        O      0.882750000000     0.948333333333     0.546500000000     0          
O        O      0.883000000000     0.880033333333     0.625966666667     0          
O        O      0.500000000000     0.912266666667     0.583333333333     0          
O        O      0.823850000000     0.910900000000     0.569400000000     0          
O        O      0.534750000000     0.993966666667     0.572066666667     0          
O        O      0.536250000000     0.942700000000     0.654200000000     0          
O        O      0.561100000000     0.903900000000     0.576500000000     0          
O        O      0.586100000000     0.987900000000     0.508333333333     0          
O        O      0.604050000000     0.844366666667     0.636533333333     0          
O        O      0.617250000000     0.948333333333     0.620166666667     0          
O        O      0.617000000000     0.880033333333     0.540700000000     0          
O        O      0.676150000000     0.910900000000     0.597266666667     0          
O        O      0.784750000000     0.839366666667     0.405400000000     0          
O        O      0.786250000000     0.890633333333     0.487533333333     0          
O        O      0.811100000000     0.929433333333     0.409833333333     0          
O        O      0.836100000000     0.845433333333     0.341666666667     0          
O        O      0.854050000000     0.988966666667     0.469866666667     0          
O        O      0.867250000000     0.885000000000     0.453500000000     0          
O        O      0.867000000000     0.953300000000     0.374033333333     0          
O        O      0.750000000000     0.921066666667     0.416666666667     0          
O        O      0.926150000000     0.922433333333     0.430600000000     0          
O        O      0.715250000000     0.839366666667     0.427933333333     0          
O        O      0.713750000000     0.890633333333     0.345800000000     0          
O        O      0.688900000000     0.929433333333     0.423500000000     0          
O        O      0.663900000000     0.845433333333     0.491666666667     0          
O        O      0.645950000000     0.988966666667     0.363466666667     0          
O        O      0.632750000000     0.885000000000     0.379833333333     0          
O        O      0.633000000000     0.953300000000     0.459300000000     0          
O        O      0.573850000000     0.922433333333     0.402733333333     0          
O        O      0.715250000000     0.827300000000     0.594600000000     0          
O        O      0.713750000000     0.776033333333     0.512466666667     0          
O        O      0.688900000000     0.737233333333     0.590166666667     0          
O        O      0.663900000000     0.821233333333     0.658333333333     0          
O        O      0.645950000000     0.677700000000     0.530133333333     0          
O        O      0.632750000000     0.781666666667     0.546500000000     0          
O        O      0.633000000000     0.713366666667     0.625966666667     0          
O        O      0.750000000000     0.745600000000     0.583333333333     0          
O        O      0.573850000000     0.744233333333     0.569400000000     0          
O        O      0.784750000000     0.827300000000     0.572066666667     0          
O        O      0.786250000000     0.776033333333     0.654200000000     0          
O        O      0.811100000000     0.737233333333     0.576500000000     0          
O        O      0.836100000000     0.821233333333     0.508333333333     0          
O        O      0.854050000000     0.677700000000     0.636533333333     0          
O        O      0.867250000000     0.781666666667     0.620166666667     0          
O        O      0.867000000000     0.713366666667     0.540700000000     0          
O        O      0.926150000000     0.744233333333     0.597266666667     0          
O        O      0.534750000000     0.672700000000     0.738733333333     0          
O        O      0.536250000000     0.723966666667     0.820866666667     0          
O        O      0.561100000000     0.762766666667     0.743166666667     0          
O        O      0.586100000000     0.678766666667     0.675000000000     0          
O        O      0.604050000000     0.822300000000     0.803200000000     0          
O        O      0.617250000000     0.718333333333     0.786833333333     0          
O        O      0.617000000000     0.786633333333     0.707366666667     0          
O        O      0.500000000000     0.754400000000     0.750000000000     0          
O        O      0.676150000000     0.755766666667     0.763933333333     0          
O        O      0.965250000000     0.672700000000     0.761266666667     0          
O        O      0.963750000000     0.723966666667     0.679133333333     0          
O        O      0.938900000000     0.762766666667     0.756833333333     0          
O        O      0.913900000000     0.678766666667     0.825000000000     0          
O        O      0.895950000000     0.822300000000     0.696800000000     0          
O        O      0.882750000000     0.718333333333     0.713166666667     0          
O        O      0.883000000000     0.786633333333     0.792633333333     0          
O        O      0.823850000000     0.755766666667     0.736066666667     0          
O        O      0.965250000000     0.993966666667     0.927933333333     0          
O        O      0.963750000000     0.942700000000     0.845800000000     0          
O        O      0.938900000000     0.903900000000     0.923500000000     0          
O        O      0.913900000000     0.987900000000     0.991666666667     0          
O        O      0.895950000000     0.844366666667     0.863466666667     0          
O        O      0.882750000000     0.948333333333     0.879833333333     0          
O        O      0.883000000000     0.880033333333     0.959300000000     0          
O        O      0.500000000000     0.912266666667     0.916666666667     0          
O        O      0.823850000000     0.910900000000     0.902733333333     0          
O        O      0.534750000000     0.993966666667     0.905400000000     0          
O        O      0.536250000000     0.942700000000     0.987533333333     0          
O        O      0.561100000000     0.903900000000     0.909833333333     0          
O        O      0.586100000000     0.987900000000     0.841666666667     0          
O        O      0.604050000000     0.844366666667     0.969866666667     0          
O        O      0.617250000000     0.948333333333     0.953500000000     0          
O        O      0.617000000000     0.880033333333     0.874033333333     0          
O        O      0.676150000000     0.910900000000     0.930600000000     0          
O        O      0.784750000000     0.839366666667     0.738733333333     0          
O        O      0.786250000000     0.890633333333     0.820866666667     0          
O        O      0.811100000000     0.929433333333     0.743166666667     0          
O        O      0.836100000000     0.845433333333     0.675000000000     0          
O        O      0.854050000000     0.988966666667     0.803200000000     0          
O        O      0.867250000000     0.885000000000     0.786833333333     0          
O        O      0.867000000000     0.953300000000     0.707366666667     0          
O        O      0.750000000000     0.921066666667     0.750000000000     0          
O        O      0.926150000000     0.922433333333     0.763933333333     0          
O        O      0.715250000000     0.839366666667     0.761266666667     0          
O        O      0.713750000000     0.890633333333     0.679133333333     0          
O        O      0.688900000000     0.929433333333     0.756833333333     0          
O        O      0.663900000000     0.845433333333     0.825000000000     0          
O        O      0.645950000000     0.988966666667     0.696800000000     0          
O        O      0.632750000000     0.885000000000     0.713166666667     0          
O        O      0.633000000000     0.953300000000     0.792633333333     0          
O        O      0.573850000000     0.922433333333     0.736066666667     0          
O        O      0.715250000000     0.827300000000     0.927933333333     0          
O        O      0.713750000000     0.776033333333     0.845800000000     0          
O        O      0.688900000000     0.737233333333     0.923500000000     0          
O        O      0.663900000000     0.821233333333     0.991666666667     0          
O        O      0.645950000000     0.677700000000     0.863466666667     0          
O        O      0.632750000000     0.781666666667     0.879833333333     0          
O        O      0.633000000000     0.713366666667     0.959300000000     0          
O        O      0.750000000000     0.745600000000     0.916666666667     0          
O        O      0.573850000000     0.744233333333     0.902733333333     0          
O        O      0.784750000000     0.827300000000     0.905400000000     0          
O        O      0.786250000000     0.776033333333     0.987533333333     0          
O        O      0.811100000000     0.737233333333     0.909833333333     0          
O        O      0.836100000000     0.821233333333     0.841666666667     0          
O        O      0.854050000000     0.677700000000     0.969866666667     0          
O        O      0.867250000000     0.781666666667     0.953500000000     0          
O        O      0.867000000000     0.713366666667     0.874033333333     0          
O        O      0.926150000000     0.744233333333     0.930600000000     0          


