data_zeolite

_audit_creation_method RASPA-1.0
_audit_creation_date 2021-6-7
_audit_author_name ''

_cell_length_a    31.35
_cell_length_b    30.056
_cell_length_c    26.862
_cell_angle_alpha 90
_cell_angle_beta  105.64
_cell_angle_gamma 90
_cell_volume      24373.7

_symmetry_cell_setting          monoclinic
_symmetry_space_group_name_Hall 'P 1'
_symmetry_space_group_name_H-M  'P 1'
_symmetry_Int_Tables_number     1

_symmetry_equiv_pos_as_xyz 'x,y,z'

loop_
_atom_site_label
_atom_site_type_symbol
_atom_site_fract_x
_atom_site_fract_y
_atom_site_fract_z
_atom_site_charge
O        O      0.166666666667     0.113300000000     0.000000000000     0          
O        O      0.103133333333     0.082050000000     0.257166666667     0          
O        O      0.115566666667     0.168350000000     0.267033333333     0          
O        O      0.083333333333     0.125000000000     0.000000000000     0          
O        O      0.145566666667     0.194750000000     0.089533333333     0          
O        O      0.114100000000     0.183050000000     0.169933333333     0          
O        O      0.086033333333     0.250000000000     0.106533333333     0          
O        O      0.121066666667     0.250000000000     0.234500000000     0          
T        Si     0.117200000000     0.122250000000     0.297966666667     0          
T        Si     0.102233333333     0.198950000000     0.110566666667     0          
T        Si     0.134633333333     0.198950000000     0.228766666667     0          
O        O      0.230200000000     0.082050000000     0.076166666667     0          
O        O      0.217766666667     0.168350000000     0.066300000000     0          
O        O      0.250000000000     0.125000000000     0.000000000000     0          
O        O      0.187766666667     0.194750000000     0.243800000000     0          
O        O      0.219233333333     0.183050000000     0.163400000000     0          
O        O      0.247300000000     0.250000000000     0.226800000000     0          
O        O      0.212266666667     0.250000000000     0.098833333333     0          
T        Si     0.216133333333     0.122250000000     0.035366666667     0          
T        Si     0.231100000000     0.198950000000     0.222766666667     0          
T        Si     0.198700000000     0.198950000000     0.104566666667     0          
O        O      0.166666666667     0.386700000000     0.000000000000     0          
O        O      0.230200000000     0.417950000000     0.076166666667     0          
O        O      0.217766666667     0.331650000000     0.066300000000     0          
O        O      0.250000000000     0.375000000000     0.000000000000     0          
O        O      0.187766666667     0.305250000000     0.243800000000     0          
O        O      0.219233333333     0.316950000000     0.163400000000     0          
T        Si     0.216133333333     0.377750000000     0.035366666667     0          
T        Si     0.231100000000     0.301050000000     0.222766666667     0          
T        Si     0.198700000000     0.301050000000     0.104566666667     0          
O        O      0.103133333333     0.417950000000     0.257166666667     0          
O        O      0.115566666667     0.331650000000     0.267033333333     0          
O        O      0.083333333333     0.375000000000     0.000000000000     0          
O        O      0.145566666667     0.305250000000     0.089533333333     0          
O        O      0.114100000000     0.316950000000     0.169933333333     0          
T        Si     0.117200000000     0.377750000000     0.297966666667     0          
T        Si     0.102233333333     0.301050000000     0.110566666667     0          
T        Si     0.134633333333     0.301050000000     0.228766666667     0          
O        O      0.000000000000     0.363300000000     0.000000000000     0          
O        O      0.269800000000     0.332050000000     0.257166666667     0          
O        O      0.282233333333     0.418350000000     0.267033333333     0          
O        O      0.312233333333     0.444750000000     0.089533333333     0          
O        O      0.280766666667     0.433050000000     0.169933333333     0          
O        O      0.252700000000     0.000000000000     0.106533333333     0          
O        O      0.287733333333     0.000000000000     0.234500000000     0          
T        Si     0.283866666667     0.372250000000     0.297966666667     0          
T        Si     0.268900000000     0.448950000000     0.110566666667     0          
T        Si     0.301300000000     0.448950000000     0.228766666667     0          
O        O      0.063533333333     0.332050000000     0.076166666667     0          
O        O      0.051100000000     0.418350000000     0.066300000000     0          
O        O      0.021100000000     0.444750000000     0.243800000000     0          
O        O      0.052566666667     0.433050000000     0.163400000000     0          
O        O      0.080633333333     0.000000000000     0.226800000000     0          
O        O      0.045600000000     0.000000000000     0.098833333333     0          
T        Si     0.049466666667     0.372250000000     0.035366666667     0          
T        Si     0.064433333333     0.448950000000     0.222766666667     0          
T        Si     0.032033333333     0.448950000000     0.104566666667     0          
O        O      0.000000000000     0.136700000000     0.000000000000     0          
O        O      0.063533333333     0.167950000000     0.076166666667     0          
O        O      0.051100000000     0.081650000000     0.066300000000     0          
O        O      0.021100000000     0.055250000000     0.243800000000     0          
O        O      0.052566666667     0.066950000000     0.163400000000     0          
T        Si     0.049466666667     0.127750000000     0.035366666667     0          
T        Si     0.064433333333     0.051050000000     0.222766666667     0          
T        Si     0.032033333333     0.051050000000     0.104566666667     0          
O        O      0.269800000000     0.167950000000     0.257166666667     0          
O        O      0.282233333333     0.081650000000     0.267033333333     0          
O        O      0.312233333333     0.055250000000     0.089533333333     0          
O        O      0.280766666667     0.066950000000     0.169933333333     0          
T        Si     0.283866666667     0.127750000000     0.297966666667     0          
T        Si     0.268900000000     0.051050000000     0.110566666667     0          
T        Si     0.301300000000     0.051050000000     0.228766666667     0          
O        O      0.166666666667     0.113300000000     0.333333333333     0          
O        O      0.103133333333     0.082050000000     0.590500000000     0          
O        O      0.115566666667     0.168350000000     0.600366666667     0          
O        O      0.083333333333     0.125000000000     0.333333333333     0          
O        O      0.145566666667     0.194750000000     0.422866666667     0          
O        O      0.114100000000     0.183050000000     0.503266666667     0          
O        O      0.086033333333     0.250000000000     0.439866666667     0          
O        O      0.121066666667     0.250000000000     0.567833333333     0          
T        Si     0.117200000000     0.122250000000     0.631300000000     0          
T        Si     0.102233333333     0.198950000000     0.443900000000     0          
T        Si     0.134633333333     0.198950000000     0.562100000000     0          
O        O      0.230200000000     0.082050000000     0.409500000000     0          
O        O      0.217766666667     0.168350000000     0.399633333333     0          
O        O      0.250000000000     0.125000000000     0.333333333333     0          
O        O      0.187766666667     0.194750000000     0.577133333333     0          
O        O      0.219233333333     0.183050000000     0.496733333333     0          
O        O      0.247300000000     0.250000000000     0.560133333333     0          
O        O      0.212266666667     0.250000000000     0.432166666667     0          
T        Si     0.216133333333     0.122250000000     0.368700000000     0          
T        Si     0.231100000000     0.198950000000     0.556100000000     0          
T        Si     0.198700000000     0.198950000000     0.437900000000     0          
O        O      0.166666666667     0.386700000000     0.333333333333     0          
O        O      0.230200000000     0.417950000000     0.409500000000     0          
O        O      0.217766666667     0.331650000000     0.399633333333     0          
O        O      0.250000000000     0.375000000000     0.333333333333     0          
O        O      0.187766666667     0.305250000000     0.577133333333     0          
O        O      0.219233333333     0.316950000000     0.496733333333     0          
T        Si     0.216133333333     0.377750000000     0.368700000000     0          
T        Si     0.231100000000     0.301050000000     0.556100000000     0          
T        Si     0.198700000000     0.301050000000     0.437900000000     0          
O        O      0.103133333333     0.417950000000     0.590500000000     0          
O        O      0.115566666667     0.331650000000     0.600366666667     0          
O        O      0.083333333333     0.375000000000     0.333333333333     0          
O        O      0.145566666667     0.305250000000     0.422866666667     0          
O        O      0.114100000000     0.316950000000     0.503266666667     0          
T        Si     0.117200000000     0.377750000000     0.631300000000     0          
T        Si     0.102233333333     0.301050000000     0.443900000000     0          
T        Si     0.134633333333     0.301050000000     0.562100000000     0          
O        O      0.000000000000     0.363300000000     0.333333333333     0          
O        O      0.269800000000     0.332050000000     0.590500000000     0          
O        O      0.282233333333     0.418350000000     0.600366666667     0          
O        O      0.312233333333     0.444750000000     0.422866666667     0          
O        O      0.280766666667     0.433050000000     0.503266666667     0          
O        O      0.252700000000     0.000000000000     0.439866666667     0          
O        O      0.287733333333     0.000000000000     0.567833333333     0          
T        Si     0.283866666667     0.372250000000     0.631300000000     0          
T        Si     0.268900000000     0.448950000000     0.443900000000     0          
T        Si     0.301300000000     0.448950000000     0.562100000000     0          
O        O      0.063533333333     0.332050000000     0.409500000000     0          
O        O      0.051100000000     0.418350000000     0.399633333333     0          
O        O      0.021100000000     0.444750000000     0.577133333333     0          
O        O      0.052566666667     0.433050000000     0.496733333333     0          
O        O      0.080633333333     0.000000000000     0.560133333333     0          
O        O      0.045600000000     0.000000000000     0.432166666667     0          
T        Si     0.049466666667     0.372250000000     0.368700000000     0          
T        Si     0.064433333333     0.448950000000     0.556100000000     0          
T        Si     0.032033333333     0.448950000000     0.437900000000     0          
O        O      0.000000000000     0.136700000000     0.333333333333     0          
O        O      0.063533333333     0.167950000000     0.409500000000     0          
O        O      0.051100000000     0.081650000000     0.399633333333     0          
O        O      0.021100000000     0.055250000000     0.577133333333     0          
O        O      0.052566666667     0.066950000000     0.496733333333     0          
T        Si     0.049466666667     0.127750000000     0.368700000000     0          
T        Si     0.064433333333     0.051050000000     0.556100000000     0          
T        Si     0.032033333333     0.051050000000     0.437900000000     0          
O        O      0.269800000000     0.167950000000     0.590500000000     0          
O        O      0.282233333333     0.081650000000     0.600366666667     0          
O        O      0.312233333333     0.055250000000     0.422866666667     0          
O        O      0.280766666667     0.066950000000     0.503266666667     0          
T        Si     0.283866666667     0.127750000000     0.631300000000     0          
T        Si     0.268900000000     0.051050000000     0.443900000000     0          
T        Si     0.301300000000     0.051050000000     0.562100000000     0          
O        O      0.166666666667     0.113300000000     0.666666666667     0          
O        O      0.103133333333     0.082050000000     0.923833333333     0          
O        O      0.115566666667     0.168350000000     0.933700000000     0          
O        O      0.083333333333     0.125000000000     0.666666666667     0          
O        O      0.145566666667     0.194750000000     0.756200000000     0          
O        O      0.114100000000     0.183050000000     0.836600000000     0          
O        O      0.086033333333     0.250000000000     0.773200000000     0          
O        O      0.121066666667     0.250000000000     0.901166666667     0          
T        Si     0.117200000000     0.122250000000     0.964633333333     0          
T        Si     0.102233333333     0.198950000000     0.777233333333     0          
T        Si     0.134633333333     0.198950000000     0.895433333333     0          
O        O      0.230200000000     0.082050000000     0.742833333333     0          
O        O      0.217766666667     0.168350000000     0.732966666667     0          
O        O      0.250000000000     0.125000000000     0.666666666667     0          
O        O      0.187766666667     0.194750000000     0.910466666667     0          
O        O      0.219233333333     0.183050000000     0.830066666667     0          
O        O      0.247300000000     0.250000000000     0.893466666667     0          
O        O      0.212266666667     0.250000000000     0.765500000000     0          
T        Si     0.216133333333     0.122250000000     0.702033333333     0          
T        Si     0.231100000000     0.198950000000     0.889433333333     0          
T        Si     0.198700000000     0.198950000000     0.771233333333     0          
O        O      0.166666666667     0.386700000000     0.666666666667     0          
O        O      0.230200000000     0.417950000000     0.742833333333     0          
O        O      0.217766666667     0.331650000000     0.732966666667     0          
O        O      0.250000000000     0.375000000000     0.666666666667     0          
O        O      0.187766666667     0.305250000000     0.910466666667     0          
O        O      0.219233333333     0.316950000000     0.830066666667     0          
T        Si     0.216133333333     0.377750000000     0.702033333333     0          
T        Si     0.231100000000     0.301050000000     0.889433333333     0          
T        Si     0.198700000000     0.301050000000     0.771233333333     0          
O        O      0.103133333333     0.417950000000     0.923833333333     0          
O        O      0.115566666667     0.331650000000     0.933700000000     0          
O        O      0.083333333333     0.375000000000     0.666666666667     0          
O        O      0.145566666667     0.305250000000     0.756200000000     0          
O        O      0.114100000000     0.316950000000     0.836600000000     0          
T        Si     0.117200000000     0.377750000000     0.964633333333     0          
T        Si     0.102233333333     0.301050000000     0.777233333333     0          
T        Si     0.134633333333     0.301050000000     0.895433333333     0          
O        O      0.000000000000     0.363300000000     0.666666666667     0          
O        O      0.269800000000     0.332050000000     0.923833333333     0          
O        O      0.282233333333     0.418350000000     0.933700000000     0          
O        O      0.312233333333     0.444750000000     0.756200000000     0          
O        O      0.280766666667     0.433050000000     0.836600000000     0          
O        O      0.252700000000     0.000000000000     0.773200000000     0          
O        O      0.287733333333     0.000000000000     0.901166666667     0          
T        Si     0.283866666667     0.372250000000     0.964633333333     0          
T        Si     0.268900000000     0.448950000000     0.777233333333     0          
T        Si     0.301300000000     0.448950000000     0.895433333333     0          
O        O      0.063533333333     0.332050000000     0.742833333333     0          
O        O      0.051100000000     0.418350000000     0.732966666667     0          
O        O      0.021100000000     0.444750000000     0.910466666667     0          
O        O      0.052566666667     0.433050000000     0.830066666667     0          
O        O      0.080633333333     0.000000000000     0.893466666667     0          
O        O      0.045600000000     0.000000000000     0.765500000000     0          
T        Si     0.049466666667     0.372250000000     0.702033333333     0          
T        Si     0.064433333333     0.448950000000     0.889433333333     0          
T        Si     0.032033333333     0.448950000000     0.771233333333     0          
O        O      0.000000000000     0.136700000000     0.666666666667     0          
O        O      0.063533333333     0.167950000000     0.742833333333     0          
O        O      0.051100000000     0.081650000000     0.732966666667     0          
O        O      0.021100000000     0.055250000000     0.910466666667     0          
O        O      0.052566666667     0.066950000000     0.830066666667     0          
T        Si     0.049466666667     0.127750000000     0.702033333333     0          
T        Si     0.064433333333     0.051050000000     0.889433333333     0          
T        Si     0.032033333333     0.051050000000     0.771233333333     0          
O        O      0.269800000000     0.167950000000     0.923833333333     0          
O        O      0.282233333333     0.081650000000     0.933700000000     0          
O        O      0.312233333333     0.055250000000     0.756200000000     0          
O        O      0.280766666667     0.066950000000     0.836600000000     0          
T        Si     0.283866666667     0.127750000000     0.964633333333     0          
T        Si     0.268900000000     0.051050000000     0.777233333333     0          
T        Si     0.301300000000     0.051050000000     0.895433333333     0          
O        O      0.166666666667     0.613300000000     0.000000000000     0          
O        O      0.103133333333     0.582050000000     0.257166666667     0          
O        O      0.115566666667     0.668350000000     0.267033333333     0          
O        O      0.083333333333     0.625000000000     0.000000000000     0          
O        O      0.145566666667     0.694750000000     0.089533333333     0          
O        O      0.114100000000     0.683050000000     0.169933333333     0          
O        O      0.086033333333     0.750000000000     0.106533333333     0          
O        O      0.121066666667     0.750000000000     0.234500000000     0          
T        Si     0.117200000000     0.622250000000     0.297966666667     0          
T        Si     0.102233333333     0.698950000000     0.110566666667     0          
T        Si     0.134633333333     0.698950000000     0.228766666667     0          
O        O      0.230200000000     0.582050000000     0.076166666667     0          
O        O      0.217766666667     0.668350000000     0.066300000000     0          
O        O      0.250000000000     0.625000000000     0.000000000000     0          
O        O      0.187766666667     0.694750000000     0.243800000000     0          
O        O      0.219233333333     0.683050000000     0.163400000000     0          
O        O      0.247300000000     0.750000000000     0.226800000000     0          
O        O      0.212266666667     0.750000000000     0.098833333333     0          
T        Si     0.216133333333     0.622250000000     0.035366666667     0          
T        Si     0.231100000000     0.698950000000     0.222766666667     0          
T        Si     0.198700000000     0.698950000000     0.104566666667     0          
O        O      0.166666666667     0.886700000000     0.000000000000     0          
O        O      0.230200000000     0.917950000000     0.076166666667     0          
O        O      0.217766666667     0.831650000000     0.066300000000     0          
O        O      0.250000000000     0.875000000000     0.000000000000     0          
O        O      0.187766666667     0.805250000000     0.243800000000     0          
O        O      0.219233333333     0.816950000000     0.163400000000     0          
T        Si     0.216133333333     0.877750000000     0.035366666667     0          
T        Si     0.231100000000     0.801050000000     0.222766666667     0          
T        Si     0.198700000000     0.801050000000     0.104566666667     0          
O        O      0.103133333333     0.917950000000     0.257166666667     0          
O        O      0.115566666667     0.831650000000     0.267033333333     0          
O        O      0.083333333333     0.875000000000     0.000000000000     0          
O        O      0.145566666667     0.805250000000     0.089533333333     0          
O        O      0.114100000000     0.816950000000     0.169933333333     0          
T        Si     0.117200000000     0.877750000000     0.297966666667     0          
T        Si     0.102233333333     0.801050000000     0.110566666667     0          
T        Si     0.134633333333     0.801050000000     0.228766666667     0          
O        O      0.000000000000     0.863300000000     0.000000000000     0          
O        O      0.269800000000     0.832050000000     0.257166666667     0          
O        O      0.282233333333     0.918350000000     0.267033333333     0          
O        O      0.312233333333     0.944750000000     0.089533333333     0          
O        O      0.280766666667     0.933050000000     0.169933333333     0          
O        O      0.252700000000     0.500000000000     0.106533333333     0          
O        O      0.287733333333     0.500000000000     0.234500000000     0          
T        Si     0.283866666667     0.872250000000     0.297966666667     0          
T        Si     0.268900000000     0.948950000000     0.110566666667     0          
T        Si     0.301300000000     0.948950000000     0.228766666667     0          
O        O      0.063533333333     0.832050000000     0.076166666667     0          
O        O      0.051100000000     0.918350000000     0.066300000000     0          
O        O      0.021100000000     0.944750000000     0.243800000000     0          
O        O      0.052566666667     0.933050000000     0.163400000000     0          
O        O      0.080633333333     0.500000000000     0.226800000000     0          
O        O      0.045600000000     0.500000000000     0.098833333333     0          
T        Si     0.049466666667     0.872250000000     0.035366666667     0          
T        Si     0.064433333333     0.948950000000     0.222766666667     0          
T        Si     0.032033333333     0.948950000000     0.104566666667     0          
O        O      0.000000000000     0.636700000000     0.000000000000     0          
O        O      0.063533333333     0.667950000000     0.076166666667     0          
O        O      0.051100000000     0.581650000000     0.066300000000     0          
O        O      0.021100000000     0.555250000000     0.243800000000     0          
O        O      0.052566666667     0.566950000000     0.163400000000     0          
T        Si     0.049466666667     0.627750000000     0.035366666667     0          
T        Si     0.064433333333     0.551050000000     0.222766666667     0          
T        Si     0.032033333333     0.551050000000     0.104566666667     0          
O        O      0.269800000000     0.667950000000     0.257166666667     0          
O        O      0.282233333333     0.581650000000     0.267033333333     0          
O        O      0.312233333333     0.555250000000     0.089533333333     0          
O        O      0.280766666667     0.566950000000     0.169933333333     0          
T        Si     0.283866666667     0.627750000000     0.297966666667     0          
T        Si     0.268900000000     0.551050000000     0.110566666667     0          
T        Si     0.301300000000     0.551050000000     0.228766666667     0          
O        O      0.166666666667     0.613300000000     0.333333333333     0          
O        O      0.103133333333     0.582050000000     0.590500000000     0          
O        O      0.115566666667     0.668350000000     0.600366666667     0          
O        O      0.083333333333     0.625000000000     0.333333333333     0          
O        O      0.145566666667     0.694750000000     0.422866666667     0          
O        O      0.114100000000     0.683050000000     0.503266666667     0          
O        O      0.086033333333     0.750000000000     0.439866666667     0          
O        O      0.121066666667     0.750000000000     0.567833333333     0          
T        Si     0.117200000000     0.622250000000     0.631300000000     0          
T        Si     0.102233333333     0.698950000000     0.443900000000     0          
T        Si     0.134633333333     0.698950000000     0.562100000000     0          
O        O      0.230200000000     0.582050000000     0.409500000000     0          
O        O      0.217766666667     0.668350000000     0.399633333333     0          
O        O      0.250000000000     0.625000000000     0.333333333333     0          
O        O      0.187766666667     0.694750000000     0.577133333333     0          
O        O      0.219233333333     0.683050000000     0.496733333333     0          
O        O      0.247300000000     0.750000000000     0.560133333333     0          
O        O      0.212266666667     0.750000000000     0.432166666667     0          
T        Si     0.216133333333     0.622250000000     0.368700000000     0          
T        Si     0.231100000000     0.698950000000     0.556100000000     0          
T        Si     0.198700000000     0.698950000000     0.437900000000     0          
O        O      0.166666666667     0.886700000000     0.333333333333     0          
O        O      0.230200000000     0.917950000000     0.409500000000     0          
O        O      0.217766666667     0.831650000000     0.399633333333     0          
O        O      0.250000000000     0.875000000000     0.333333333333     0          
O        O      0.187766666667     0.805250000000     0.577133333333     0          
O        O      0.219233333333     0.816950000000     0.496733333333     0          
T        Si     0.216133333333     0.877750000000     0.368700000000     0          
T        Si     0.231100000000     0.801050000000     0.556100000000     0          
T        Si     0.198700000000     0.801050000000     0.437900000000     0          
O        O      0.103133333333     0.917950000000     0.590500000000     0          
O        O      0.115566666667     0.831650000000     0.600366666667     0          
O        O      0.083333333333     0.875000000000     0.333333333333     0          
O        O      0.145566666667     0.805250000000     0.422866666667     0          
O        O      0.114100000000     0.816950000000     0.503266666667     0          
T        Si     0.117200000000     0.877750000000     0.631300000000     0          
T        Si     0.102233333333     0.801050000000     0.443900000000     0          
T        Si     0.134633333333     0.801050000000     0.562100000000     0          
O        O      0.000000000000     0.863300000000     0.333333333333     0          
O        O      0.269800000000     0.832050000000     0.590500000000     0          
O        O      0.282233333333     0.918350000000     0.600366666667     0          
O        O      0.312233333333     0.944750000000     0.422866666667     0          
O        O      0.280766666667     0.933050000000     0.503266666667     0          
O        O      0.252700000000     0.500000000000     0.439866666667     0          
O        O      0.287733333333     0.500000000000     0.567833333333     0          
T        Si     0.283866666667     0.872250000000     0.631300000000     0          
T        Si     0.268900000000     0.948950000000     0.443900000000     0          
T        Si     0.301300000000     0.948950000000     0.562100000000     0          
O        O      0.063533333333     0.832050000000     0.409500000000     0          
O        O      0.051100000000     0.918350000000     0.399633333333     0          
O        O      0.021100000000     0.944750000000     0.577133333333     0          
O        O      0.052566666667     0.933050000000     0.496733333333     0          
O        O      0.080633333333     0.500000000000     0.560133333333     0          
O        O      0.045600000000     0.500000000000     0.432166666667     0          
T        Si     0.049466666667     0.872250000000     0.368700000000     0          
T        Si     0.064433333333     0.948950000000     0.556100000000     0          
T        Si     0.032033333333     0.948950000000     0.437900000000     0          
O        O      0.000000000000     0.636700000000     0.333333333333     0          
O        O      0.063533333333     0.667950000000     0.409500000000     0          
O        O      0.051100000000     0.581650000000     0.399633333333     0          
O        O      0.021100000000     0.555250000000     0.577133333333     0          
O        O      0.052566666667     0.566950000000     0.496733333333     0          
T        Si     0.049466666667     0.627750000000     0.368700000000     0          
T        Si     0.064433333333     0.551050000000     0.556100000000     0          
T        Si     0.032033333333     0.551050000000     0.437900000000     0          
O        O      0.269800000000     0.667950000000     0.590500000000     0          
O        O      0.282233333333     0.581650000000     0.600366666667     0          
O        O      0.312233333333     0.555250000000     0.422866666667     0          
O        O      0.280766666667     0.566950000000     0.503266666667     0          
T        Si     0.283866666667     0.627750000000     0.631300000000     0          
T        Si     0.268900000000     0.551050000000     0.443900000000     0          
T        Si     0.301300000000     0.551050000000     0.562100000000     0          
O        O      0.166666666667     0.613300000000     0.666666666667     0          
O        O      0.103133333333     0.582050000000     0.923833333333     0          
O        O      0.115566666667     0.668350000000     0.933700000000     0          
O        O      0.083333333333     0.625000000000     0.666666666667     0          
O        O      0.145566666667     0.694750000000     0.756200000000     0          
O        O      0.114100000000     0.683050000000     0.836600000000     0          
O        O      0.086033333333     0.750000000000     0.773200000000     0          
O        O      0.121066666667     0.750000000000     0.901166666667     0          
T        Si     0.117200000000     0.622250000000     0.964633333333     0          
T        Si     0.102233333333     0.698950000000     0.777233333333     0          
T        Si     0.134633333333     0.698950000000     0.895433333333     0          
O        O      0.230200000000     0.582050000000     0.742833333333     0          
O        O      0.217766666667     0.668350000000     0.732966666667     0          
O        O      0.250000000000     0.625000000000     0.666666666667     0          
O        O      0.187766666667     0.694750000000     0.910466666667     0          
O        O      0.219233333333     0.683050000000     0.830066666667     0          
O        O      0.247300000000     0.750000000000     0.893466666667     0          
O        O      0.212266666667     0.750000000000     0.765500000000     0          
T        Si     0.216133333333     0.622250000000     0.702033333333     0          
T        Si     0.231100000000     0.698950000000     0.889433333333     0          
T        Si     0.198700000000     0.698950000000     0.771233333333     0          
O        O      0.166666666667     0.886700000000     0.666666666667     0          
O        O      0.230200000000     0.917950000000     0.742833333333     0          
O        O      0.217766666667     0.831650000000     0.732966666667     0          
O        O      0.250000000000     0.875000000000     0.666666666667     0          
O        O      0.187766666667     0.805250000000     0.910466666667     0          
O        O      0.219233333333     0.816950000000     0.830066666667     0          
T        Si     0.216133333333     0.877750000000     0.702033333333     0          
T        Si     0.231100000000     0.801050000000     0.889433333333     0          
T        Si     0.198700000000     0.801050000000     0.771233333333     0          
O        O      0.103133333333     0.917950000000     0.923833333333     0          
O        O      0.115566666667     0.831650000000     0.933700000000     0          
O        O      0.083333333333     0.875000000000     0.666666666667     0          
O        O      0.145566666667     0.805250000000     0.756200000000     0          
O        O      0.114100000000     0.816950000000     0.836600000000     0          
T        Si     0.117200000000     0.877750000000     0.964633333333     0          
T        Si     0.102233333333     0.801050000000     0.777233333333     0          
T        Si     0.134633333333     0.801050000000     0.895433333333     0          
O        O      0.000000000000     0.863300000000     0.666666666667     0          
O        O      0.269800000000     0.832050000000     0.923833333333     0          
O        O      0.282233333333     0.918350000000     0.933700000000     0          
O        O      0.312233333333     0.944750000000     0.756200000000     0          
O        O      0.280766666667     0.933050000000     0.836600000000     0          
O        O      0.252700000000     0.500000000000     0.773200000000     0          
O        O      0.287733333333     0.500000000000     0.901166666667     0          
T        Si     0.283866666667     0.872250000000     0.964633333333     0          
T        Si     0.268900000000     0.948950000000     0.777233333333     0          
T        Si     0.301300000000     0.948950000000     0.895433333333     0          
O        O      0.063533333333     0.832050000000     0.742833333333     0          
O        O      0.051100000000     0.918350000000     0.732966666667     0          
O        O      0.021100000000     0.944750000000     0.910466666667     0          
O        O      0.052566666667     0.933050000000     0.830066666667     0          
O        O      0.080633333333     0.500000000000     0.893466666667     0          
O        O      0.045600000000     0.500000000000     0.765500000000     0          
T        Si     0.049466666667     0.872250000000     0.702033333333     0          
T        Si     0.064433333333     0.948950000000     0.889433333333     0          
T        Si     0.032033333333     0.948950000000     0.771233333333     0          
O        O      0.000000000000     0.636700000000     0.666666666667     0          
O        O      0.063533333333     0.667950000000     0.742833333333     0          
O        O      0.051100000000     0.581650000000     0.732966666667     0          
O        O      0.021100000000     0.555250000000     0.910466666667     0          
O        O      0.052566666667     0.566950000000     0.830066666667     0          
T        Si     0.049466666667     0.627750000000     0.702033333333     0          
T        Si     0.064433333333     0.551050000000     0.889433333333     0          
T        Si     0.032033333333     0.551050000000     0.771233333333     0          
O        O      0.269800000000     0.667950000000     0.923833333333     0          
O        O      0.282233333333     0.581650000000     0.933700000000     0          
O        O      0.312233333333     0.555250000000     0.756200000000     0          
O        O      0.280766666667     0.566950000000     0.836600000000     0          
T        Si     0.283866666667     0.627750000000     0.964633333333     0          
T        Si     0.268900000000     0.551050000000     0.777233333333     0          
T        Si     0.301300000000     0.551050000000     0.895433333333     0          
O        O      0.500000000000     0.113300000000     0.000000000000     0          
O        O      0.436466666667     0.082050000000     0.257166666667     0          
O        O      0.448900000000     0.168350000000     0.267033333333     0          
O        O      0.416666666667     0.125000000000     0.000000000000     0          
O        O      0.478900000000     0.194750000000     0.089533333333     0          
O        O      0.447433333333     0.183050000000     0.169933333333     0          
O        O      0.419366666667     0.250000000000     0.106533333333     0          
O        O      0.454400000000     0.250000000000     0.234500000000     0          
T        Si     0.450533333333     0.122250000000     0.297966666667     0          
T        Si     0.435566666667     0.198950000000     0.110566666667     0          
T        Si     0.467966666667     0.198950000000     0.228766666667     0          
O        O      0.563533333333     0.082050000000     0.076166666667     0          
O        O      0.551100000000     0.168350000000     0.066300000000     0          
O        O      0.583333333333     0.125000000000     0.000000000000     0          
O        O      0.521100000000     0.194750000000     0.243800000000     0          
O        O      0.552566666667     0.183050000000     0.163400000000     0          
O        O      0.580633333333     0.250000000000     0.226800000000     0          
O        O      0.545600000000     0.250000000000     0.098833333333     0          
T        Si     0.549466666667     0.122250000000     0.035366666667     0          
T        Si     0.564433333333     0.198950000000     0.222766666667     0          
T        Si     0.532033333333     0.198950000000     0.104566666667     0          
O        O      0.500000000000     0.386700000000     0.000000000000     0          
O        O      0.563533333333     0.417950000000     0.076166666667     0          
O        O      0.551100000000     0.331650000000     0.066300000000     0          
O        O      0.583333333333     0.375000000000     0.000000000000     0          
O        O      0.521100000000     0.305250000000     0.243800000000     0          
O        O      0.552566666667     0.316950000000     0.163400000000     0          
T        Si     0.549466666667     0.377750000000     0.035366666667     0          
T        Si     0.564433333333     0.301050000000     0.222766666667     0          
T        Si     0.532033333333     0.301050000000     0.104566666667     0          
O        O      0.436466666667     0.417950000000     0.257166666667     0          
O        O      0.448900000000     0.331650000000     0.267033333333     0          
O        O      0.416666666667     0.375000000000     0.000000000000     0          
O        O      0.478900000000     0.305250000000     0.089533333333     0          
O        O      0.447433333333     0.316950000000     0.169933333333     0          
T        Si     0.450533333333     0.377750000000     0.297966666667     0          
T        Si     0.435566666667     0.301050000000     0.110566666667     0          
T        Si     0.467966666667     0.301050000000     0.228766666667     0          
O        O      0.333333333333     0.363300000000     0.000000000000     0          
O        O      0.603133333333     0.332050000000     0.257166666667     0          
O        O      0.615566666667     0.418350000000     0.267033333333     0          
O        O      0.645566666667     0.444750000000     0.089533333333     0          
O        O      0.614100000000     0.433050000000     0.169933333333     0          
O        O      0.586033333333     0.000000000000     0.106533333333     0          
O        O      0.621066666667     0.000000000000     0.234500000000     0          
T        Si     0.617200000000     0.372250000000     0.297966666667     0          
T        Si     0.602233333333     0.448950000000     0.110566666667     0          
T        Si     0.634633333333     0.448950000000     0.228766666667     0          
O        O      0.396866666667     0.332050000000     0.076166666667     0          
O        O      0.384433333333     0.418350000000     0.066300000000     0          
O        O      0.354433333333     0.444750000000     0.243800000000     0          
O        O      0.385900000000     0.433050000000     0.163400000000     0          
O        O      0.413966666667     0.000000000000     0.226800000000     0          
O        O      0.378933333333     0.000000000000     0.098833333333     0          
T        Si     0.382800000000     0.372250000000     0.035366666667     0          
T        Si     0.397766666667     0.448950000000     0.222766666667     0          
T        Si     0.365366666667     0.448950000000     0.104566666667     0          
O        O      0.333333333333     0.136700000000     0.000000000000     0          
O        O      0.396866666667     0.167950000000     0.076166666667     0          
O        O      0.384433333333     0.081650000000     0.066300000000     0          
O        O      0.354433333333     0.055250000000     0.243800000000     0          
O        O      0.385900000000     0.066950000000     0.163400000000     0          
T        Si     0.382800000000     0.127750000000     0.035366666667     0          
T        Si     0.397766666667     0.051050000000     0.222766666667     0          
T        Si     0.365366666667     0.051050000000     0.104566666667     0          
O        O      0.603133333333     0.167950000000     0.257166666667     0          
O        O      0.615566666667     0.081650000000     0.267033333333     0          
O        O      0.645566666667     0.055250000000     0.089533333333     0          
O        O      0.614100000000     0.066950000000     0.169933333333     0          
T        Si     0.617200000000     0.127750000000     0.297966666667     0          
T        Si     0.602233333333     0.051050000000     0.110566666667     0          
T        Si     0.634633333333     0.051050000000     0.228766666667     0          
O        O      0.500000000000     0.113300000000     0.333333333333     0          
O        O      0.436466666667     0.082050000000     0.590500000000     0          
O        O      0.448900000000     0.168350000000     0.600366666667     0          
O        O      0.416666666667     0.125000000000     0.333333333333     0          
O        O      0.478900000000     0.194750000000     0.422866666667     0          
O        O      0.447433333333     0.183050000000     0.503266666667     0          
O        O      0.419366666667     0.250000000000     0.439866666667     0          
O        O      0.454400000000     0.250000000000     0.567833333333     0          
T        Si     0.450533333333     0.122250000000     0.631300000000     0          
T        Si     0.435566666667     0.198950000000     0.443900000000     0          
T        Si     0.467966666667     0.198950000000     0.562100000000     0          
O        O      0.563533333333     0.082050000000     0.409500000000     0          
O        O      0.551100000000     0.168350000000     0.399633333333     0          
O        O      0.583333333333     0.125000000000     0.333333333333     0          
O        O      0.521100000000     0.194750000000     0.577133333333     0          
O        O      0.552566666667     0.183050000000     0.496733333333     0          
O        O      0.580633333333     0.250000000000     0.560133333333     0          
O        O      0.545600000000     0.250000000000     0.432166666667     0          
T        Si     0.549466666667     0.122250000000     0.368700000000     0          
T        Si     0.564433333333     0.198950000000     0.556100000000     0          
T        Si     0.532033333333     0.198950000000     0.437900000000     0          
O        O      0.500000000000     0.386700000000     0.333333333333     0          
O        O      0.563533333333     0.417950000000     0.409500000000     0          
O        O      0.551100000000     0.331650000000     0.399633333333     0          
O        O      0.583333333333     0.375000000000     0.333333333333     0          
O        O      0.521100000000     0.305250000000     0.577133333333     0          
O        O      0.552566666667     0.316950000000     0.496733333333     0          
T        Si     0.549466666667     0.377750000000     0.368700000000     0          
T        Si     0.564433333333     0.301050000000     0.556100000000     0          
T        Si     0.532033333333     0.301050000000     0.437900000000     0          
O        O      0.436466666667     0.417950000000     0.590500000000     0          
O        O      0.448900000000     0.331650000000     0.600366666667     0          
O        O      0.416666666667     0.375000000000     0.333333333333     0          
O        O      0.478900000000     0.305250000000     0.422866666667     0          
O        O      0.447433333333     0.316950000000     0.503266666667     0          
T        Si     0.450533333333     0.377750000000     0.631300000000     0          
T        Si     0.435566666667     0.301050000000     0.443900000000     0          
T        Si     0.467966666667     0.301050000000     0.562100000000     0          
O        O      0.333333333333     0.363300000000     0.333333333333     0          
O        O      0.603133333333     0.332050000000     0.590500000000     0          
O        O      0.615566666667     0.418350000000     0.600366666667     0          
O        O      0.645566666667     0.444750000000     0.422866666667     0          
O        O      0.614100000000     0.433050000000     0.503266666667     0          
O        O      0.586033333333     0.000000000000     0.439866666667     0          
O        O      0.621066666667     0.000000000000     0.567833333333     0          
T        Si     0.617200000000     0.372250000000     0.631300000000     0          
T        Si     0.602233333333     0.448950000000     0.443900000000     0          
T        Si     0.634633333333     0.448950000000     0.562100000000     0          
O        O      0.396866666667     0.332050000000     0.409500000000     0          
O        O      0.384433333333     0.418350000000     0.399633333333     0          
O        O      0.354433333333     0.444750000000     0.577133333333     0          
O        O      0.385900000000     0.433050000000     0.496733333333     0          
O        O      0.413966666667     0.000000000000     0.560133333333     0          
O        O      0.378933333333     0.000000000000     0.432166666667     0          
T        Si     0.382800000000     0.372250000000     0.368700000000     0          
T        Si     0.397766666667     0.448950000000     0.556100000000     0          
T        Si     0.365366666667     0.448950000000     0.437900000000     0          
O        O      0.333333333333     0.136700000000     0.333333333333     0          
O        O      0.396866666667     0.167950000000     0.409500000000     0          
O        O      0.384433333333     0.081650000000     0.399633333333     0          
O        O      0.354433333333     0.055250000000     0.577133333333     0          
O        O      0.385900000000     0.066950000000     0.496733333333     0          
T        Si     0.382800000000     0.127750000000     0.368700000000     0          
T        Si     0.397766666667     0.051050000000     0.556100000000     0          
T        Si     0.365366666667     0.051050000000     0.437900000000     0          
O        O      0.603133333333     0.167950000000     0.590500000000     0          
O        O      0.615566666667     0.081650000000     0.600366666667     0          
O        O      0.645566666667     0.055250000000     0.422866666667     0          
O        O      0.614100000000     0.066950000000     0.503266666667     0          
T        Si     0.617200000000     0.127750000000     0.631300000000     0          
T        Si     0.602233333333     0.051050000000     0.443900000000     0          
T        Si     0.634633333333     0.051050000000     0.562100000000     0          
O        O      0.500000000000     0.113300000000     0.666666666667     0          
O        O      0.436466666667     0.082050000000     0.923833333333     0          
O        O      0.448900000000     0.168350000000     0.933700000000     0          
O        O      0.416666666667     0.125000000000     0.666666666667     0          
O        O      0.478900000000     0.194750000000     0.756200000000     0          
O        O      0.447433333333     0.183050000000     0.836600000000     0          
O        O      0.419366666667     0.250000000000     0.773200000000     0          
O        O      0.454400000000     0.250000000000     0.901166666667     0          
T        Si     0.450533333333     0.122250000000     0.964633333333     0          
T        Si     0.435566666667     0.198950000000     0.777233333333     0          
T        Si     0.467966666667     0.198950000000     0.895433333333     0          
O        O      0.563533333333     0.082050000000     0.742833333333     0          
O        O      0.551100000000     0.168350000000     0.732966666667     0          
O        O      0.583333333333     0.125000000000     0.666666666667     0          
O        O      0.521100000000     0.194750000000     0.910466666667     0          
O        O      0.552566666667     0.183050000000     0.830066666667     0          
O        O      0.580633333333     0.250000000000     0.893466666667     0          
O        O      0.545600000000     0.250000000000     0.765500000000     0          
T        Si     0.549466666667     0.122250000000     0.702033333333     0          
T        Si     0.564433333333     0.198950000000     0.889433333333     0          
T        Si     0.532033333333     0.198950000000     0.771233333333     0          
O        O      0.500000000000     0.386700000000     0.666666666667     0          
O        O      0.563533333333     0.417950000000     0.742833333333     0          
O        O      0.551100000000     0.331650000000     0.732966666667     0          
O        O      0.583333333333     0.375000000000     0.666666666667     0          
O        O      0.521100000000     0.305250000000     0.910466666667     0          
O        O      0.552566666667     0.316950000000     0.830066666667     0          
T        Si     0.549466666667     0.377750000000     0.702033333333     0          
T        Si     0.564433333333     0.301050000000     0.889433333333     0          
T        Si     0.532033333333     0.301050000000     0.771233333333     0          
O        O      0.436466666667     0.417950000000     0.923833333333     0          
O        O      0.448900000000     0.331650000000     0.933700000000     0          
O        O      0.416666666667     0.375000000000     0.666666666667     0          
O        O      0.478900000000     0.305250000000     0.756200000000     0          
O        O      0.447433333333     0.316950000000     0.836600000000     0          
T        Si     0.450533333333     0.377750000000     0.964633333333     0          
T        Si     0.435566666667     0.301050000000     0.777233333333     0          
T        Si     0.467966666667     0.301050000000     0.895433333333     0          
O        O      0.333333333333     0.363300000000     0.666666666667     0          
O        O      0.603133333333     0.332050000000     0.923833333333     0          
O        O      0.615566666667     0.418350000000     0.933700000000     0          
O        O      0.645566666667     0.444750000000     0.756200000000     0          
O        O      0.614100000000     0.433050000000     0.836600000000     0          
O        O      0.586033333333     0.000000000000     0.773200000000     0          
O        O      0.621066666667     0.000000000000     0.901166666667     0          
T        Si     0.617200000000     0.372250000000     0.964633333333     0          
T        Si     0.602233333333     0.448950000000     0.777233333333     0          
T        Si     0.634633333333     0.448950000000     0.895433333333     0          
O        O      0.396866666667     0.332050000000     0.742833333333     0          
O        O      0.384433333333     0.418350000000     0.732966666667     0          
O        O      0.354433333333     0.444750000000     0.910466666667     0          
O        O      0.385900000000     0.433050000000     0.830066666667     0          
O        O      0.413966666667     0.000000000000     0.893466666667     0          
O        O      0.378933333333     0.000000000000     0.765500000000     0          
T        Si     0.382800000000     0.372250000000     0.702033333333     0          
T        Si     0.397766666667     0.448950000000     0.889433333333     0          
T        Si     0.365366666667     0.448950000000     0.771233333333     0          
O        O      0.333333333333     0.136700000000     0.666666666667     0          
O        O      0.396866666667     0.167950000000     0.742833333333     0          
O        O      0.384433333333     0.081650000000     0.732966666667     0          
O        O      0.354433333333     0.055250000000     0.910466666667     0          
O        O      0.385900000000     0.066950000000     0.830066666667     0          
T        Si     0.382800000000     0.127750000000     0.702033333333     0          
T        Si     0.397766666667     0.051050000000     0.889433333333     0          
T        Si     0.365366666667     0.051050000000     0.771233333333     0          
O        O      0.603133333333     0.167950000000     0.923833333333     0          
O        O      0.615566666667     0.081650000000     0.933700000000     0          
O        O      0.645566666667     0.055250000000     0.756200000000     0          
O        O      0.614100000000     0.066950000000     0.836600000000     0          
T        Si     0.617200000000     0.127750000000     0.964633333333     0          
T        Si     0.602233333333     0.051050000000     0.777233333333     0          
T        Si     0.634633333333     0.051050000000     0.895433333333     0          
O        O      0.500000000000     0.613300000000     0.000000000000     0          
O        O      0.436466666667     0.582050000000     0.257166666667     0          
O        O      0.448900000000     0.668350000000     0.267033333333     0          
O        O      0.416666666667     0.625000000000     0.000000000000     0          
O        O      0.478900000000     0.694750000000     0.089533333333     0          
O        O      0.447433333333     0.683050000000     0.169933333333     0          
O        O      0.419366666667     0.750000000000     0.106533333333     0          
O        O      0.454400000000     0.750000000000     0.234500000000     0          
T        Si     0.450533333333     0.622250000000     0.297966666667     0          
T        Si     0.435566666667     0.698950000000     0.110566666667     0          
T        Si     0.467966666667     0.698950000000     0.228766666667     0          
O        O      0.563533333333     0.582050000000     0.076166666667     0          
O        O      0.551100000000     0.668350000000     0.066300000000     0          
O        O      0.583333333333     0.625000000000     0.000000000000     0          
O        O      0.521100000000     0.694750000000     0.243800000000     0          
O        O      0.552566666667     0.683050000000     0.163400000000     0          
O        O      0.580633333333     0.750000000000     0.226800000000     0          
O        O      0.545600000000     0.750000000000     0.098833333333     0          
T        Si     0.549466666667     0.622250000000     0.035366666667     0          
T        Si     0.564433333333     0.698950000000     0.222766666667     0          
T        Si     0.532033333333     0.698950000000     0.104566666667     0          
O        O      0.500000000000     0.886700000000     0.000000000000     0          
O        O      0.563533333333     0.917950000000     0.076166666667     0          
O        O      0.551100000000     0.831650000000     0.066300000000     0          
O        O      0.583333333333     0.875000000000     0.000000000000     0          
O        O      0.521100000000     0.805250000000     0.243800000000     0          
O        O      0.552566666667     0.816950000000     0.163400000000     0          
T        Si     0.549466666667     0.877750000000     0.035366666667     0          
T        Si     0.564433333333     0.801050000000     0.222766666667     0          
T        Si     0.532033333333     0.801050000000     0.104566666667     0          
O        O      0.436466666667     0.917950000000     0.257166666667     0          
O        O      0.448900000000     0.831650000000     0.267033333333     0          
O        O      0.416666666667     0.875000000000     0.000000000000     0          
O        O      0.478900000000     0.805250000000     0.089533333333     0          
O        O      0.447433333333     0.816950000000     0.169933333333     0          
T        Si     0.450533333333     0.877750000000     0.297966666667     0          
T        Si     0.435566666667     0.801050000000     0.110566666667     0          
T        Si     0.467966666667     0.801050000000     0.228766666667     0          
O        O      0.333333333333     0.863300000000     0.000000000000     0          
O        O      0.603133333333     0.832050000000     0.257166666667     0          
O        O      0.615566666667     0.918350000000     0.267033333333     0          
O        O      0.645566666667     0.944750000000     0.089533333333     0          
O        O      0.614100000000     0.933050000000     0.169933333333     0          
O        O      0.586033333333     0.500000000000     0.106533333333     0          
O        O      0.621066666667     0.500000000000     0.234500000000     0          
T        Si     0.617200000000     0.872250000000     0.297966666667     0          
T        Si     0.602233333333     0.948950000000     0.110566666667     0          
T        Si     0.634633333333     0.948950000000     0.228766666667     0          
O        O      0.396866666667     0.832050000000     0.076166666667     0          
O        O      0.384433333333     0.918350000000     0.066300000000     0          
O        O      0.354433333333     0.944750000000     0.243800000000     0          
O        O      0.385900000000     0.933050000000     0.163400000000     0          
O        O      0.413966666667     0.500000000000     0.226800000000     0          
O        O      0.378933333333     0.500000000000     0.098833333333     0          
T        Si     0.382800000000     0.872250000000     0.035366666667     0          
T        Si     0.397766666667     0.948950000000     0.222766666667     0          
T        Si     0.365366666667     0.948950000000     0.104566666667     0          
O        O      0.333333333333     0.636700000000     0.000000000000     0          
O        O      0.396866666667     0.667950000000     0.076166666667     0          
O        O      0.384433333333     0.581650000000     0.066300000000     0          
O        O      0.354433333333     0.555250000000     0.243800000000     0          
O        O      0.385900000000     0.566950000000     0.163400000000     0          
T        Si     0.382800000000     0.627750000000     0.035366666667     0          
T        Si     0.397766666667     0.551050000000     0.222766666667     0          
T        Si     0.365366666667     0.551050000000     0.104566666667     0          
O        O      0.603133333333     0.667950000000     0.257166666667     0          
O        O      0.615566666667     0.581650000000     0.267033333333     0          
O        O      0.645566666667     0.555250000000     0.089533333333     0          
O        O      0.614100000000     0.566950000000     0.169933333333     0          
T        Si     0.617200000000     0.627750000000     0.297966666667     0          
T        Si     0.602233333333     0.551050000000     0.110566666667     0          
T        Si     0.634633333333     0.551050000000     0.228766666667     0          
O        O      0.500000000000     0.613300000000     0.333333333333     0          
O        O      0.436466666667     0.582050000000     0.590500000000     0          
O        O      0.448900000000     0.668350000000     0.600366666667     0          
O        O      0.416666666667     0.625000000000     0.333333333333     0          
O        O      0.478900000000     0.694750000000     0.422866666667     0          
O        O      0.447433333333     0.683050000000     0.503266666667     0          
O        O      0.419366666667     0.750000000000     0.439866666667     0          
O        O      0.454400000000     0.750000000000     0.567833333333     0          
T        Si     0.450533333333     0.622250000000     0.631300000000     0          
T        Si     0.435566666667     0.698950000000     0.443900000000     0          
T        Si     0.467966666667     0.698950000000     0.562100000000     0          
O        O      0.563533333333     0.582050000000     0.409500000000     0          
O        O      0.551100000000     0.668350000000     0.399633333333     0          
O        O      0.583333333333     0.625000000000     0.333333333333     0          
O        O      0.521100000000     0.694750000000     0.577133333333     0          
O        O      0.552566666667     0.683050000000     0.496733333333     0          
O        O      0.580633333333     0.750000000000     0.560133333333     0          
O        O      0.545600000000     0.750000000000     0.432166666667     0          
T        Si     0.549466666667     0.622250000000     0.368700000000     0          
T        Si     0.564433333333     0.698950000000     0.556100000000     0          
T        Si     0.532033333333     0.698950000000     0.437900000000     0          
O        O      0.500000000000     0.886700000000     0.333333333333     0          
O        O      0.563533333333     0.917950000000     0.409500000000     0          
O        O      0.551100000000     0.831650000000     0.399633333333     0          
O        O      0.583333333333     0.875000000000     0.333333333333     0          
O        O      0.521100000000     0.805250000000     0.577133333333     0          
O        O      0.552566666667     0.816950000000     0.496733333333     0          
T        Si     0.549466666667     0.877750000000     0.368700000000     0          
T        Si     0.564433333333     0.801050000000     0.556100000000     0          
T        Si     0.532033333333     0.801050000000     0.437900000000     0          
O        O      0.436466666667     0.917950000000     0.590500000000     0          
O        O      0.448900000000     0.831650000000     0.600366666667     0          
O        O      0.416666666667     0.875000000000     0.333333333333     0          
O        O      0.478900000000     0.805250000000     0.422866666667     0          
O        O      0.447433333333     0.816950000000     0.503266666667     0          
T        Si     0.450533333333     0.877750000000     0.631300000000     0          
T        Si     0.435566666667     0.801050000000     0.443900000000     0          
T        Si     0.467966666667     0.801050000000     0.562100000000     0          
O        O      0.333333333333     0.863300000000     0.333333333333     0          
O        O      0.603133333333     0.832050000000     0.590500000000     0          
O        O      0.615566666667     0.918350000000     0.600366666667     0          
O        O      0.645566666667     0.944750000000     0.422866666667     0          
O        O      0.614100000000     0.933050000000     0.503266666667     0          
O        O      0.586033333333     0.500000000000     0.439866666667     0          
O        O      0.621066666667     0.500000000000     0.567833333333     0          
T        Si     0.617200000000     0.872250000000     0.631300000000     0          
T        Si     0.602233333333     0.948950000000     0.443900000000     0          
T        Si     0.634633333333     0.948950000000     0.562100000000     0          
O        O      0.396866666667     0.832050000000     0.409500000000     0          
O        O      0.384433333333     0.918350000000     0.399633333333     0          
O        O      0.354433333333     0.944750000000     0.577133333333     0          
O        O      0.385900000000     0.933050000000     0.496733333333     0          
O        O      0.413966666667     0.500000000000     0.560133333333     0          
O        O      0.378933333333     0.500000000000     0.432166666667     0          
T        Si     0.382800000000     0.872250000000     0.368700000000     0          
T        Si     0.397766666667     0.948950000000     0.556100000000     0          
T        Si     0.365366666667     0.948950000000     0.437900000000     0          
O        O      0.333333333333     0.636700000000     0.333333333333     0          
O        O      0.396866666667     0.667950000000     0.409500000000     0          
O        O      0.384433333333     0.581650000000     0.399633333333     0          
O        O      0.354433333333     0.555250000000     0.577133333333     0          
O        O      0.385900000000     0.566950000000     0.496733333333     0          
T        Si     0.382800000000     0.627750000000     0.368700000000     0          
T        Si     0.397766666667     0.551050000000     0.556100000000     0          
T        Si     0.365366666667     0.551050000000     0.437900000000     0          
O        O      0.603133333333     0.667950000000     0.590500000000     0          
O        O      0.615566666667     0.581650000000     0.600366666667     0          
O        O      0.645566666667     0.555250000000     0.422866666667     0          
O        O      0.614100000000     0.566950000000     0.503266666667     0          
T        Si     0.617200000000     0.627750000000     0.631300000000     0          
T        Si     0.602233333333     0.551050000000     0.443900000000     0          
T        Si     0.634633333333     0.551050000000     0.562100000000     0          
O        O      0.500000000000     0.613300000000     0.666666666667     0          
O        O      0.436466666667     0.582050000000     0.923833333333     0          
O        O      0.448900000000     0.668350000000     0.933700000000     0          
O        O      0.416666666667     0.625000000000     0.666666666667     0          
O        O      0.478900000000     0.694750000000     0.756200000000     0          
O        O      0.447433333333     0.683050000000     0.836600000000     0          
O        O      0.419366666667     0.750000000000     0.773200000000     0          
O        O      0.454400000000     0.750000000000     0.901166666667     0          
T        Si     0.450533333333     0.622250000000     0.964633333333     0          
T        Si     0.435566666667     0.698950000000     0.777233333333     0          
T        Si     0.467966666667     0.698950000000     0.895433333333     0          
O        O      0.563533333333     0.582050000000     0.742833333333     0          
O        O      0.551100000000     0.668350000000     0.732966666667     0          
O        O      0.583333333333     0.625000000000     0.666666666667     0          
O        O      0.521100000000     0.694750000000     0.910466666667     0          
O        O      0.552566666667     0.683050000000     0.830066666667     0          
O        O      0.580633333333     0.750000000000     0.893466666667     0          
O        O      0.545600000000     0.750000000000     0.765500000000     0          
T        Si     0.549466666667     0.622250000000     0.702033333333     0          
T        Si     0.564433333333     0.698950000000     0.889433333333     0          
T        Si     0.532033333333     0.698950000000     0.771233333333     0          
O        O      0.500000000000     0.886700000000     0.666666666667     0          
O        O      0.563533333333     0.917950000000     0.742833333333     0          
O        O      0.551100000000     0.831650000000     0.732966666667     0          
O        O      0.583333333333     0.875000000000     0.666666666667     0          
O        O      0.521100000000     0.805250000000     0.910466666667     0          
O        O      0.552566666667     0.816950000000     0.830066666667     0          
T        Si     0.549466666667     0.877750000000     0.702033333333     0          
T        Si     0.564433333333     0.801050000000     0.889433333333     0          
T        Si     0.532033333333     0.801050000000     0.771233333333     0          
O        O      0.436466666667     0.917950000000     0.923833333333     0          
O        O      0.448900000000     0.831650000000     0.933700000000     0          
O        O      0.416666666667     0.875000000000     0.666666666667     0          
O        O      0.478900000000     0.805250000000     0.756200000000     0          
O        O      0.447433333333     0.816950000000     0.836600000000     0          
T        Si     0.450533333333     0.877750000000     0.964633333333     0          
T        Si     0.435566666667     0.801050000000     0.777233333333     0          
T        Si     0.467966666667     0.801050000000     0.895433333333     0          
O        O      0.333333333333     0.863300000000     0.666666666667     0          
O        O      0.603133333333     0.832050000000     0.923833333333     0          
O        O      0.615566666667     0.918350000000     0.933700000000     0          
O        O      0.645566666667     0.944750000000     0.756200000000     0          
O        O      0.614100000000     0.933050000000     0.836600000000     0          
O        O      0.586033333333     0.500000000000     0.773200000000     0          
O        O      0.621066666667     0.500000000000     0.901166666667     0          
T        Si     0.617200000000     0.872250000000     0.964633333333     0          
T        Si     0.602233333333     0.948950000000     0.777233333333     0          
T        Si     0.634633333333     0.948950000000     0.895433333333     0          
O        O      0.396866666667     0.832050000000     0.742833333333     0          
O        O      0.384433333333     0.918350000000     0.732966666667     0          
O        O      0.354433333333     0.944750000000     0.910466666667     0          
O        O      0.385900000000     0.933050000000     0.830066666667     0          
O        O      0.413966666667     0.500000000000     0.893466666667     0          
O        O      0.378933333333     0.500000000000     0.765500000000     0          
T        Si     0.382800000000     0.872250000000     0.702033333333     0          
T        Si     0.397766666667     0.948950000000     0.889433333333     0          
T        Si     0.365366666667     0.948950000000     0.771233333333     0          
O        O      0.333333333333     0.636700000000     0.666666666667     0          
O        O      0.396866666667     0.667950000000     0.742833333333     0          
O        O      0.384433333333     0.581650000000     0.732966666667     0          
O        O      0.354433333333     0.555250000000     0.910466666667     0          
O        O      0.385900000000     0.566950000000     0.830066666667     0          
T        Si     0.382800000000     0.627750000000     0.702033333333     0          
T        Si     0.397766666667     0.551050000000     0.889433333333     0          
T        Si     0.365366666667     0.551050000000     0.771233333333     0          
O        O      0.603133333333     0.667950000000     0.923833333333     0          
O        O      0.615566666667     0.581650000000     0.933700000000     0          
O        O      0.645566666667     0.555250000000     0.756200000000     0          
O        O      0.614100000000     0.566950000000     0.836600000000     0          
T        Si     0.617200000000     0.627750000000     0.964633333333     0          
T        Si     0.602233333333     0.551050000000     0.777233333333     0          
T        Si     0.634633333333     0.551050000000     0.895433333333     0          
O        O      0.833333333333     0.113300000000     0.000000000000     0          
O        O      0.769800000000     0.082050000000     0.257166666667     0          
O        O      0.782233333333     0.168350000000     0.267033333333     0          
O        O      0.750000000000     0.125000000000     0.000000000000     0          
O        O      0.812233333333     0.194750000000     0.089533333333     0          
O        O      0.780766666667     0.183050000000     0.169933333333     0          
O        O      0.752700000000     0.250000000000     0.106533333333     0          
O        O      0.787733333333     0.250000000000     0.234500000000     0          
T        Si     0.783866666667     0.122250000000     0.297966666667     0          
T        Si     0.768900000000     0.198950000000     0.110566666667     0          
T        Si     0.801300000000     0.198950000000     0.228766666667     0          
O        O      0.896866666667     0.082050000000     0.076166666667     0          
O        O      0.884433333333     0.168350000000     0.066300000000     0          
O        O      0.916666666667     0.125000000000     0.000000000000     0          
O        O      0.854433333333     0.194750000000     0.243800000000     0          
O        O      0.885900000000     0.183050000000     0.163400000000     0          
O        O      0.913966666667     0.250000000000     0.226800000000     0          
O        O      0.878933333333     0.250000000000     0.098833333333     0          
T        Si     0.882800000000     0.122250000000     0.035366666667     0          
T        Si     0.897766666667     0.198950000000     0.222766666667     0          
T        Si     0.865366666667     0.198950000000     0.104566666667     0          
O        O      0.833333333333     0.386700000000     0.000000000000     0          
O        O      0.896866666667     0.417950000000     0.076166666667     0          
O        O      0.884433333333     0.331650000000     0.066300000000     0          
O        O      0.916666666667     0.375000000000     0.000000000000     0          
O        O      0.854433333333     0.305250000000     0.243800000000     0          
O        O      0.885900000000     0.316950000000     0.163400000000     0          
T        Si     0.882800000000     0.377750000000     0.035366666667     0          
T        Si     0.897766666667     0.301050000000     0.222766666667     0          
T        Si     0.865366666667     0.301050000000     0.104566666667     0          
O        O      0.769800000000     0.417950000000     0.257166666667     0          
O        O      0.782233333333     0.331650000000     0.267033333333     0          
O        O      0.750000000000     0.375000000000     0.000000000000     0          
O        O      0.812233333333     0.305250000000     0.089533333333     0          
O        O      0.780766666667     0.316950000000     0.169933333333     0          
T        Si     0.783866666667     0.377750000000     0.297966666667     0          
T        Si     0.768900000000     0.301050000000     0.110566666667     0          
T        Si     0.801300000000     0.301050000000     0.228766666667     0          
O        O      0.666666666667     0.363300000000     0.000000000000     0          
O        O      0.936466666667     0.332050000000     0.257166666667     0          
O        O      0.948900000000     0.418350000000     0.267033333333     0          
O        O      0.978900000000     0.444750000000     0.089533333333     0          
O        O      0.947433333333     0.433050000000     0.169933333333     0          
O        O      0.919366666667     0.000000000000     0.106533333333     0          
O        O      0.954400000000     0.000000000000     0.234500000000     0          
T        Si     0.950533333333     0.372250000000     0.297966666667     0          
T        Si     0.935566666667     0.448950000000     0.110566666667     0          
T        Si     0.967966666667     0.448950000000     0.228766666667     0          
O        O      0.730200000000     0.332050000000     0.076166666667     0          
O        O      0.717766666667     0.418350000000     0.066300000000     0          
O        O      0.687766666667     0.444750000000     0.243800000000     0          
O        O      0.719233333333     0.433050000000     0.163400000000     0          
O        O      0.747300000000     0.000000000000     0.226800000000     0          
O        O      0.712266666667     0.000000000000     0.098833333333     0          
T        Si     0.716133333333     0.372250000000     0.035366666667     0          
T        Si     0.731100000000     0.448950000000     0.222766666667     0          
T        Si     0.698700000000     0.448950000000     0.104566666667     0          
O        O      0.666666666667     0.136700000000     0.000000000000     0          
O        O      0.730200000000     0.167950000000     0.076166666667     0          
O        O      0.717766666667     0.081650000000     0.066300000000     0          
O        O      0.687766666667     0.055250000000     0.243800000000     0          
O        O      0.719233333333     0.066950000000     0.163400000000     0          
T        Si     0.716133333333     0.127750000000     0.035366666667     0          
T        Si     0.731100000000     0.051050000000     0.222766666667     0          
T        Si     0.698700000000     0.051050000000     0.104566666667     0          
O        O      0.936466666667     0.167950000000     0.257166666667     0          
O        O      0.948900000000     0.081650000000     0.267033333333     0          
O        O      0.978900000000     0.055250000000     0.089533333333     0          
O        O      0.947433333333     0.066950000000     0.169933333333     0          
T        Si     0.950533333333     0.127750000000     0.297966666667     0          
T        Si     0.935566666667     0.051050000000     0.110566666667     0          
T        Si     0.967966666667     0.051050000000     0.228766666667     0          
O        O      0.833333333333     0.113300000000     0.333333333333     0          
O        O      0.769800000000     0.082050000000     0.590500000000     0          
O        O      0.782233333333     0.168350000000     0.600366666667     0          
O        O      0.750000000000     0.125000000000     0.333333333333     0          
O        O      0.812233333333     0.194750000000     0.422866666667     0          
O        O      0.780766666667     0.183050000000     0.503266666667     0          
O        O      0.752700000000     0.250000000000     0.439866666667     0          
O        O      0.787733333333     0.250000000000     0.567833333333     0          
T        Si     0.783866666667     0.122250000000     0.631300000000     0          
T        Si     0.768900000000     0.198950000000     0.443900000000     0          
T        Si     0.801300000000     0.198950000000     0.562100000000     0          
O        O      0.896866666667     0.082050000000     0.409500000000     0          
O        O      0.884433333333     0.168350000000     0.399633333333     0          
O        O      0.916666666667     0.125000000000     0.333333333333     0          
O        O      0.854433333333     0.194750000000     0.577133333333     0          
O        O      0.885900000000     0.183050000000     0.496733333333     0          
O        O      0.913966666667     0.250000000000     0.560133333333     0          
O        O      0.878933333333     0.250000000000     0.432166666667     0          
T        Si     0.882800000000     0.122250000000     0.368700000000     0          
T        Si     0.897766666667     0.198950000000     0.556100000000     0          
T        Si     0.865366666667     0.198950000000     0.437900000000     0          
O        O      0.833333333333     0.386700000000     0.333333333333     0          
O        O      0.896866666667     0.417950000000     0.409500000000     0          
O        O      0.884433333333     0.331650000000     0.399633333333     0          
O        O      0.916666666667     0.375000000000     0.333333333333     0          
O        O      0.854433333333     0.305250000000     0.577133333333     0          
O        O      0.885900000000     0.316950000000     0.496733333333     0          
T        Si     0.882800000000     0.377750000000     0.368700000000     0          
T        Si     0.897766666667     0.301050000000     0.556100000000     0          
T        Si     0.865366666667     0.301050000000     0.437900000000     0          
O        O      0.769800000000     0.417950000000     0.590500000000     0          
O        O      0.782233333333     0.331650000000     0.600366666667     0          
O        O      0.750000000000     0.375000000000     0.333333333333     0          
O        O      0.812233333333     0.305250000000     0.422866666667     0          
O        O      0.780766666667     0.316950000000     0.503266666667     0          
T        Si     0.783866666667     0.377750000000     0.631300000000     0          
T        Si     0.768900000000     0.301050000000     0.443900000000     0          
T        Si     0.801300000000     0.301050000000     0.562100000000     0          
O        O      0.666666666667     0.363300000000     0.333333333333     0          
O        O      0.936466666667     0.332050000000     0.590500000000     0          
O        O      0.948900000000     0.418350000000     0.600366666667     0          
O        O      0.978900000000     0.444750000000     0.422866666667     0          
O        O      0.947433333333     0.433050000000     0.503266666667     0          
O        O      0.919366666667     0.000000000000     0.439866666667     0          
O        O      0.954400000000     0.000000000000     0.567833333333     0          
T        Si     0.950533333333     0.372250000000     0.631300000000     0          
T        Si     0.935566666667     0.448950000000     0.443900000000     0          
T        Si     0.967966666667     0.448950000000     0.562100000000     0          
O        O      0.730200000000     0.332050000000     0.409500000000     0          
O        O      0.717766666667     0.418350000000     0.399633333333     0          
O        O      0.687766666667     0.444750000000     0.577133333333     0          
O        O      0.719233333333     0.433050000000     0.496733333333     0          
O        O      0.747300000000     0.000000000000     0.560133333333     0          
O        O      0.712266666667     0.000000000000     0.432166666667     0          
T        Si     0.716133333333     0.372250000000     0.368700000000     0          
T        Si     0.731100000000     0.448950000000     0.556100000000     0          
T        Si     0.698700000000     0.448950000000     0.437900000000     0          
O        O      0.666666666667     0.136700000000     0.333333333333     0          
O        O      0.730200000000     0.167950000000     0.409500000000     0          
O        O      0.717766666667     0.081650000000     0.399633333333     0          
O        O      0.687766666667     0.055250000000     0.577133333333     0          
O        O      0.719233333333     0.066950000000     0.496733333333     0          
T        Si     0.716133333333     0.127750000000     0.368700000000     0          
T        Si     0.731100000000     0.051050000000     0.556100000000     0          
T        Si     0.698700000000     0.051050000000     0.437900000000     0          
O        O      0.936466666667     0.167950000000     0.590500000000     0          
O        O      0.948900000000     0.081650000000     0.600366666667     0          
O        O      0.978900000000     0.055250000000     0.422866666667     0          
O        O      0.947433333333     0.066950000000     0.503266666667     0          
T        Si     0.950533333333     0.127750000000     0.631300000000     0          
T        Si     0.935566666667     0.051050000000     0.443900000000     0          
T        Si     0.967966666667     0.051050000000     0.562100000000     0          
O        O      0.833333333333     0.113300000000     0.666666666667     0          
O        O      0.769800000000     0.082050000000     0.923833333333     0          
O        O      0.782233333333     0.168350000000     0.933700000000     0          
O        O      0.750000000000     0.125000000000     0.666666666667     0          
O        O      0.812233333333     0.194750000000     0.756200000000     0          
O        O      0.780766666667     0.183050000000     0.836600000000     0          
O        O      0.752700000000     0.250000000000     0.773200000000     0          
O        O      0.787733333333     0.250000000000     0.901166666667     0          
T        Si     0.783866666667     0.122250000000     0.964633333333     0          
T        Si     0.768900000000     0.198950000000     0.777233333333     0          
T        Si     0.801300000000     0.198950000000     0.895433333333     0          
O        O      0.896866666667     0.082050000000     0.742833333333     0          
O        O      0.884433333333     0.168350000000     0.732966666667     0          
O        O      0.916666666667     0.125000000000     0.666666666667     0          
O        O      0.854433333333     0.194750000000     0.910466666667     0          
O        O      0.885900000000     0.183050000000     0.830066666667     0          
O        O      0.913966666667     0.250000000000     0.893466666667     0          
O        O      0.878933333333     0.250000000000     0.765500000000     0          
T        Si     0.882800000000     0.122250000000     0.702033333333     0          
T        Si     0.897766666667     0.198950000000     0.889433333333     0          
T        Si     0.865366666667     0.198950000000     0.771233333333     0          
O        O      0.833333333333     0.386700000000     0.666666666667     0          
O        O      0.896866666667     0.417950000000     0.742833333333     0          
O        O      0.884433333333     0.331650000000     0.732966666667     0          
O        O      0.916666666667     0.375000000000     0.666666666667     0          
O        O      0.854433333333     0.305250000000     0.910466666667     0          
O        O      0.885900000000     0.316950000000     0.830066666667     0          
T        Si     0.882800000000     0.377750000000     0.702033333333     0          
T        Si     0.897766666667     0.301050000000     0.889433333333     0          
T        Si     0.865366666667     0.301050000000     0.771233333333     0          
O        O      0.769800000000     0.417950000000     0.923833333333     0          
O        O      0.782233333333     0.331650000000     0.933700000000     0          
O        O      0.750000000000     0.375000000000     0.666666666667     0          
O        O      0.812233333333     0.305250000000     0.756200000000     0          
O        O      0.780766666667     0.316950000000     0.836600000000     0          
T        Si     0.783866666667     0.377750000000     0.964633333333     0          
T        Si     0.768900000000     0.301050000000     0.777233333333     0          
T        Si     0.801300000000     0.301050000000     0.895433333333     0          
O        O      0.666666666667     0.363300000000     0.666666666667     0          
O        O      0.936466666667     0.332050000000     0.923833333333     0          
O        O      0.948900000000     0.418350000000     0.933700000000     0          
O        O      0.978900000000     0.444750000000     0.756200000000     0          
O        O      0.947433333333     0.433050000000     0.836600000000     0          
O        O      0.919366666667     0.000000000000     0.773200000000     0          
O        O      0.954400000000     0.000000000000     0.901166666667     0          
T        Si     0.950533333333     0.372250000000     0.964633333333     0          
T        Si     0.935566666667     0.448950000000     0.777233333333     0          
T        Si     0.967966666667     0.448950000000     0.895433333333     0          
O        O      0.730200000000     0.332050000000     0.742833333333     0          
O        O      0.717766666667     0.418350000000     0.732966666667     0          
O        O      0.687766666667     0.444750000000     0.910466666667     0          
O        O      0.719233333333     0.433050000000     0.830066666667     0          
O        O      0.747300000000     0.000000000000     0.893466666667     0          
O        O      0.712266666667     0.000000000000     0.765500000000     0          
T        Si     0.716133333333     0.372250000000     0.702033333333     0          
T        Si     0.731100000000     0.448950000000     0.889433333333     0          
T        Si     0.698700000000     0.448950000000     0.771233333333     0          
O        O      0.666666666667     0.136700000000     0.666666666667     0          
O        O      0.730200000000     0.167950000000     0.742833333333     0          
O        O      0.717766666667     0.081650000000     0.732966666667     0          
O        O      0.687766666667     0.055250000000     0.910466666667     0          
O        O      0.719233333333     0.066950000000     0.830066666667     0          
T        Si     0.716133333333     0.127750000000     0.702033333333     0          
T        Si     0.731100000000     0.051050000000     0.889433333333     0          
T        Si     0.698700000000     0.051050000000     0.771233333333     0          
O        O      0.936466666667     0.167950000000     0.923833333333     0          
O        O      0.948900000000     0.081650000000     0.933700000000     0          
O        O      0.978900000000     0.055250000000     0.756200000000     0          
O        O      0.947433333333     0.066950000000     0.836600000000     0          
T        Si     0.950533333333     0.127750000000     0.964633333333     0          
T        Si     0.935566666667     0.051050000000     0.777233333333     0          
T        Si     0.967966666667     0.051050000000     0.895433333333     0          
O        O      0.833333333333     0.613300000000     0.000000000000     0          
O        O      0.769800000000     0.582050000000     0.257166666667     0          
O        O      0.782233333333     0.668350000000     0.267033333333     0          
O        O      0.750000000000     0.625000000000     0.000000000000     0          
O        O      0.812233333333     0.694750000000     0.089533333333     0          
O        O      0.780766666667     0.683050000000     0.169933333333     0          
O        O      0.752700000000     0.750000000000     0.106533333333     0          
O        O      0.787733333333     0.750000000000     0.234500000000     0          
T        Si     0.783866666667     0.622250000000     0.297966666667     0          
T        Si     0.768900000000     0.698950000000     0.110566666667     0          
T        Si     0.801300000000     0.698950000000     0.228766666667     0          
O        O      0.896866666667     0.582050000000     0.076166666667     0          
O        O      0.884433333333     0.668350000000     0.066300000000     0          
O        O      0.916666666667     0.625000000000     0.000000000000     0          
O        O      0.854433333333     0.694750000000     0.243800000000     0          
O        O      0.885900000000     0.683050000000     0.163400000000     0          
O        O      0.913966666667     0.750000000000     0.226800000000     0          
O        O      0.878933333333     0.750000000000     0.098833333333     0          
T        Si     0.882800000000     0.622250000000     0.035366666667     0          
T        Si     0.897766666667     0.698950000000     0.222766666667     0          
T        Si     0.865366666667     0.698950000000     0.104566666667     0          
O        O      0.833333333333     0.886700000000     0.000000000000     0          
O        O      0.896866666667     0.917950000000     0.076166666667     0          
O        O      0.884433333333     0.831650000000     0.066300000000     0          
O        O      0.916666666667     0.875000000000     0.000000000000     0          
O        O      0.854433333333     0.805250000000     0.243800000000     0          
O        O      0.885900000000     0.816950000000     0.163400000000     0          
T        Si     0.882800000000     0.877750000000     0.035366666667     0          
T        Si     0.897766666667     0.801050000000     0.222766666667     0          
T        Si     0.865366666667     0.801050000000     0.104566666667     0          
O        O      0.769800000000     0.917950000000     0.257166666667     0          
O        O      0.782233333333     0.831650000000     0.267033333333     0          
O        O      0.750000000000     0.875000000000     0.000000000000     0          
O        O      0.812233333333     0.805250000000     0.089533333333     0          
O        O      0.780766666667     0.816950000000     0.169933333333     0          
T        Si     0.783866666667     0.877750000000     0.297966666667     0          
T        Si     0.768900000000     0.801050000000     0.110566666667     0          
T        Si     0.801300000000     0.801050000000     0.228766666667     0          
O        O      0.666666666667     0.863300000000     0.000000000000     0          
O        O      0.936466666667     0.832050000000     0.257166666667     0          
O        O      0.948900000000     0.918350000000     0.267033333333     0          
O        O      0.978900000000     0.944750000000     0.089533333333     0          
O        O      0.947433333333     0.933050000000     0.169933333333     0          
O        O      0.919366666667     0.500000000000     0.106533333333     0          
O        O      0.954400000000     0.500000000000     0.234500000000     0          
T        Si     0.950533333333     0.872250000000     0.297966666667     0          
T        Si     0.935566666667     0.948950000000     0.110566666667     0          
T        Si     0.967966666667     0.948950000000     0.228766666667     0          
O        O      0.730200000000     0.832050000000     0.076166666667     0          
O        O      0.717766666667     0.918350000000     0.066300000000     0          
O        O      0.687766666667     0.944750000000     0.243800000000     0          
O        O      0.719233333333     0.933050000000     0.163400000000     0          
O        O      0.747300000000     0.500000000000     0.226800000000     0          
O        O      0.712266666667     0.500000000000     0.098833333333     0          
T        Si     0.716133333333     0.872250000000     0.035366666667     0          
T        Si     0.731100000000     0.948950000000     0.222766666667     0          
T        Si     0.698700000000     0.948950000000     0.104566666667     0          
O        O      0.666666666667     0.636700000000     0.000000000000     0          
O        O      0.730200000000     0.667950000000     0.076166666667     0          
O        O      0.717766666667     0.581650000000     0.066300000000     0          
O        O      0.687766666667     0.555250000000     0.243800000000     0          
O        O      0.719233333333     0.566950000000     0.163400000000     0          
T        Si     0.716133333333     0.627750000000     0.035366666667     0          
T        Si     0.731100000000     0.551050000000     0.222766666667     0          
T        Si     0.698700000000     0.551050000000     0.104566666667     0          
O        O      0.936466666667     0.667950000000     0.257166666667     0          
O        O      0.948900000000     0.581650000000     0.267033333333     0          
O        O      0.978900000000     0.555250000000     0.089533333333     0          
O        O      0.947433333333     0.566950000000     0.169933333333     0          
T        Si     0.950533333333     0.627750000000     0.297966666667     0          
T        Si     0.935566666667     0.551050000000     0.110566666667     0          
T        Si     0.967966666667     0.551050000000     0.228766666667     0          
O        O      0.833333333333     0.613300000000     0.333333333333     0          
O        O      0.769800000000     0.582050000000     0.590500000000     0          
O        O      0.782233333333     0.668350000000     0.600366666667     0          
O        O      0.750000000000     0.625000000000     0.333333333333     0          
O        O      0.812233333333     0.694750000000     0.422866666667     0          
O        O      0.780766666667     0.683050000000     0.503266666667     0          
O        O      0.752700000000     0.750000000000     0.439866666667     0          
O        O      0.787733333333     0.750000000000     0.567833333333     0          
T        Si     0.783866666667     0.622250000000     0.631300000000     0          
T        Si     0.768900000000     0.698950000000     0.443900000000     0          
T        Si     0.801300000000     0.698950000000     0.562100000000     0          
O        O      0.896866666667     0.582050000000     0.409500000000     0          
O        O      0.884433333333     0.668350000000     0.399633333333     0          
O        O      0.916666666667     0.625000000000     0.333333333333     0          
O        O      0.854433333333     0.694750000000     0.577133333333     0          
O        O      0.885900000000     0.683050000000     0.496733333333     0          
O        O      0.913966666667     0.750000000000     0.560133333333     0          
O        O      0.878933333333     0.750000000000     0.432166666667     0          
T        Si     0.882800000000     0.622250000000     0.368700000000     0          
T        Si     0.897766666667     0.698950000000     0.556100000000     0          
T        Si     0.865366666667     0.698950000000     0.437900000000     0          
O        O      0.833333333333     0.886700000000     0.333333333333     0          
O        O      0.896866666667     0.917950000000     0.409500000000     0          
O        O      0.884433333333     0.831650000000     0.399633333333     0          
O        O      0.916666666667     0.875000000000     0.333333333333     0          
O        O      0.854433333333     0.805250000000     0.577133333333     0          
O        O      0.885900000000     0.816950000000     0.496733333333     0          
T        Si     0.882800000000     0.877750000000     0.368700000000     0          
T        Si     0.897766666667     0.801050000000     0.556100000000     0          
T        Si     0.865366666667     0.801050000000     0.437900000000     0          
O        O      0.769800000000     0.917950000000     0.590500000000     0          
O        O      0.782233333333     0.831650000000     0.600366666667     0          
O        O      0.750000000000     0.875000000000     0.333333333333     0          
O        O      0.812233333333     0.805250000000     0.422866666667     0          
O        O      0.780766666667     0.816950000000     0.503266666667     0          
T        Si     0.783866666667     0.877750000000     0.631300000000     0          
T        Si     0.768900000000     0.801050000000     0.443900000000     0          
T        Si     0.801300000000     0.801050000000     0.562100000000     0          
O        O      0.666666666667     0.863300000000     0.333333333333     0          
O        O      0.936466666667     0.832050000000     0.590500000000     0          
O        O      0.948900000000     0.918350000000     0.600366666667     0          
O        O      0.978900000000     0.944750000000     0.422866666667     0          
O        O      0.947433333333     0.933050000000     0.503266666667     0          
O        O      0.919366666667     0.500000000000     0.439866666667     0          
O        O      0.954400000000     0.500000000000     0.567833333333     0          
T        Si     0.950533333333     0.872250000000     0.631300000000     0          
T        Si     0.935566666667     0.948950000000     0.443900000000     0          
T        Si     0.967966666667     0.948950000000     0.562100000000     0          
O        O      0.730200000000     0.832050000000     0.409500000000     0          
O        O      0.717766666667     0.918350000000     0.399633333333     0          
O        O      0.687766666667     0.944750000000     0.577133333333     0          
O        O      0.719233333333     0.933050000000     0.496733333333     0          
O        O      0.747300000000     0.500000000000     0.560133333333     0          
O        O      0.712266666667     0.500000000000     0.432166666667     0          
T        Si     0.716133333333     0.872250000000     0.368700000000     0          
T        Si     0.731100000000     0.948950000000     0.556100000000     0          
T        Si     0.698700000000     0.948950000000     0.437900000000     0          
O        O      0.666666666667     0.636700000000     0.333333333333     0          
O        O      0.730200000000     0.667950000000     0.409500000000     0          
O        O      0.717766666667     0.581650000000     0.399633333333     0          
O        O      0.687766666667     0.555250000000     0.577133333333     0          
O        O      0.719233333333     0.566950000000     0.496733333333     0          
T        Si     0.716133333333     0.627750000000     0.368700000000     0          
T        Si     0.731100000000     0.551050000000     0.556100000000     0          
T        Si     0.698700000000     0.551050000000     0.437900000000     0          
O        O      0.936466666667     0.667950000000     0.590500000000     0          
O        O      0.948900000000     0.581650000000     0.600366666667     0          
O        O      0.978900000000     0.555250000000     0.422866666667     0          
O        O      0.947433333333     0.566950000000     0.503266666667     0          
T        Si     0.950533333333     0.627750000000     0.631300000000     0          
T        Si     0.935566666667     0.551050000000     0.443900000000     0          
T        Si     0.967966666667     0.551050000000     0.562100000000     0          
O        O      0.833333333333     0.613300000000     0.666666666667     0          
O        O      0.769800000000     0.582050000000     0.923833333333     0          
O        O      0.782233333333     0.668350000000     0.933700000000     0          
O        O      0.750000000000     0.625000000000     0.666666666667     0          
O        O      0.812233333333     0.694750000000     0.756200000000     0          
O        O      0.780766666667     0.683050000000     0.836600000000     0          
O        O      0.752700000000     0.750000000000     0.773200000000     0          
O        O      0.787733333333     0.750000000000     0.901166666667     0          
T        Si     0.783866666667     0.622250000000     0.964633333333     0          
T        Si     0.768900000000     0.698950000000     0.777233333333     0          
T        Si     0.801300000000     0.698950000000     0.895433333333     0          
O        O      0.896866666667     0.582050000000     0.742833333333     0          
O        O      0.884433333333     0.668350000000     0.732966666667     0          
O        O      0.916666666667     0.625000000000     0.666666666667     0          
O        O      0.854433333333     0.694750000000     0.910466666667     0          
O        O      0.885900000000     0.683050000000     0.830066666667     0          
O        O      0.913966666667     0.750000000000     0.893466666667     0          
O        O      0.878933333333     0.750000000000     0.765500000000     0          
T        Si     0.882800000000     0.622250000000     0.702033333333     0          
T        Si     0.897766666667     0.698950000000     0.889433333333     0          
T        Si     0.865366666667     0.698950000000     0.771233333333     0          
O        O      0.833333333333     0.886700000000     0.666666666667     0          
O        O      0.896866666667     0.917950000000     0.742833333333     0          
O        O      0.884433333333     0.831650000000     0.732966666667     0          
O        O      0.916666666667     0.875000000000     0.666666666667     0          
O        O      0.854433333333     0.805250000000     0.910466666667     0          
O        O      0.885900000000     0.816950000000     0.830066666667     0          
T        Si     0.882800000000     0.877750000000     0.702033333333     0          
T        Si     0.897766666667     0.801050000000     0.889433333333     0          
T        Si     0.865366666667     0.801050000000     0.771233333333     0          
O        O      0.769800000000     0.917950000000     0.923833333333     0          
O        O      0.782233333333     0.831650000000     0.933700000000     0          
O        O      0.750000000000     0.875000000000     0.666666666667     0          
O        O      0.812233333333     0.805250000000     0.756200000000     0          
O        O      0.780766666667     0.816950000000     0.836600000000     0          
T        Si     0.783866666667     0.877750000000     0.964633333333     0          
T        Si     0.768900000000     0.801050000000     0.777233333333     0          
T        Si     0.801300000000     0.801050000000     0.895433333333     0          
O        O      0.666666666667     0.863300000000     0.666666666667     0          
O        O      0.936466666667     0.832050000000     0.923833333333     0          
O        O      0.948900000000     0.918350000000     0.933700000000     0          
O        O      0.978900000000     0.944750000000     0.756200000000     0          
O        O      0.947433333333     0.933050000000     0.836600000000     0          
O        O      0.919366666667     0.500000000000     0.773200000000     0          
O        O      0.954400000000     0.500000000000     0.901166666667     0          
T        Si     0.950533333333     0.872250000000     0.964633333333     0          
T        Si     0.935566666667     0.948950000000     0.777233333333     0          
T        Si     0.967966666667     0.948950000000     0.895433333333     0          
O        O      0.730200000000     0.832050000000     0.742833333333     0          
O        O      0.717766666667     0.918350000000     0.732966666667     0          
O        O      0.687766666667     0.944750000000     0.910466666667     0          
O        O      0.719233333333     0.933050000000     0.830066666667     0          
O        O      0.747300000000     0.500000000000     0.893466666667     0          
O        O      0.712266666667     0.500000000000     0.765500000000     0          
T        Si     0.716133333333     0.872250000000     0.702033333333     0          
T        Si     0.731100000000     0.948950000000     0.889433333333     0          
T        Si     0.698700000000     0.948950000000     0.771233333333     0          
O        O      0.666666666667     0.636700000000     0.666666666667     0          
O        O      0.730200000000     0.667950000000     0.742833333333     0          
O        O      0.717766666667     0.581650000000     0.732966666667     0          
O        O      0.687766666667     0.555250000000     0.910466666667     0          
O        O      0.719233333333     0.566950000000     0.830066666667     0          
T        Si     0.716133333333     0.627750000000     0.702033333333     0          
T        Si     0.731100000000     0.551050000000     0.889433333333     0          
T        Si     0.698700000000     0.551050000000     0.771233333333     0          
O        O      0.936466666667     0.667950000000     0.923833333333     0          
O        O      0.948900000000     0.581650000000     0.933700000000     0          
O        O      0.978900000000     0.555250000000     0.756200000000     0          
O        O      0.947433333333     0.566950000000     0.836600000000     0          
T        Si     0.950533333333     0.627750000000     0.964633333333     0          
T        Si     0.935566666667     0.551050000000     0.777233333333     0          
T        Si     0.967966666667     0.551050000000     0.895433333333     0          


