data_zeolite

_audit_creation_method RASPA-1.0
_audit_creation_date 2021-6-7
_audit_author_name ''

_cell_length_a    14.105
_cell_length_b    17.842
_cell_length_c    5.256
_cell_angle_alpha 90
_cell_angle_beta  90
_cell_angle_gamma 90
_cell_volume      26454.6

_symmetry_cell_setting          orthorhombic
_symmetry_space_group_name_Hall 'P 1'
_symmetry_space_group_name_H-M  'P 1'
_symmetry_Int_Tables_number     1

_symmetry_equiv_pos_as_xyz 'x,y,z'

loop_
_atom_site_label
_atom_site_type_symbol
_atom_site_fract_x
_atom_site_fract_y
_atom_site_fract_z
_atom_site_charge
T        Si     0.148150000000     0.024250000000     0.050000000000     0          
T        Si     0.103300000000     0.105550000000     0.050000000000     0          
T        Si     0.000000000000     0.136550000000     0.050000000000     0          
T        Si     0.250000000000     0.061450000000     0.050000000000     0          
T        Si     0.351850000000     0.475750000000     0.150000000000     0          
T        Si     0.396700000000     0.394450000000     0.150000000000     0          
T        Si     0.000000000000     0.363450000000     0.150000000000     0          
T        Si     0.250000000000     0.438550000000     0.150000000000     0          
T        Si     0.148150000000     0.475750000000     0.150000000000     0          
T        Si     0.103300000000     0.394450000000     0.150000000000     0          
T        Si     0.351850000000     0.024250000000     0.050000000000     0          
T        Si     0.396700000000     0.105550000000     0.050000000000     0          
T        Si     0.398150000000     0.274250000000     0.050000000000     0          
T        Si     0.353300000000     0.355550000000     0.050000000000     0          
T        Si     0.250000000000     0.386550000000     0.050000000000     0          
T        Si     0.000000000000     0.311450000000     0.050000000000     0          
T        Si     0.101850000000     0.225750000000     0.150000000000     0          
T        Si     0.146700000000     0.144450000000     0.150000000000     0          
T        Si     0.250000000000     0.113450000000     0.150000000000     0          
T        Si     0.000000000000     0.188550000000     0.150000000000     0          
T        Si     0.398150000000     0.225750000000     0.150000000000     0          
T        Si     0.353300000000     0.144450000000     0.150000000000     0          
T        Si     0.101850000000     0.274250000000     0.050000000000     0          
T        Si     0.146700000000     0.355550000000     0.050000000000     0          
T        Si     0.148150000000     0.024250000000     0.250000000000     0          
T        Si     0.103300000000     0.105550000000     0.250000000000     0          
T        Si     0.000000000000     0.136550000000     0.250000000000     0          
T        Si     0.250000000000     0.061450000000     0.250000000000     0          
T        Si     0.351850000000     0.475750000000     0.350000000000     0          
T        Si     0.396700000000     0.394450000000     0.350000000000     0          
T        Si     0.000000000000     0.363450000000     0.350000000000     0          
T        Si     0.250000000000     0.438550000000     0.350000000000     0          
T        Si     0.148150000000     0.475750000000     0.350000000000     0          
T        Si     0.103300000000     0.394450000000     0.350000000000     0          
T        Si     0.351850000000     0.024250000000     0.250000000000     0          
T        Si     0.396700000000     0.105550000000     0.250000000000     0          
T        Si     0.398150000000     0.274250000000     0.250000000000     0          
T        Si     0.353300000000     0.355550000000     0.250000000000     0          
T        Si     0.250000000000     0.386550000000     0.250000000000     0          
T        Si     0.000000000000     0.311450000000     0.250000000000     0          
T        Si     0.101850000000     0.225750000000     0.350000000000     0          
T        Si     0.146700000000     0.144450000000     0.350000000000     0          
T        Si     0.250000000000     0.113450000000     0.350000000000     0          
T        Si     0.000000000000     0.188550000000     0.350000000000     0          
T        Si     0.398150000000     0.225750000000     0.350000000000     0          
T        Si     0.353300000000     0.144450000000     0.350000000000     0          
T        Si     0.101850000000     0.274250000000     0.250000000000     0          
T        Si     0.146700000000     0.355550000000     0.250000000000     0          
T        Si     0.148150000000     0.024250000000     0.450000000000     0          
T        Si     0.103300000000     0.105550000000     0.450000000000     0          
T        Si     0.000000000000     0.136550000000     0.450000000000     0          
T        Si     0.250000000000     0.061450000000     0.450000000000     0          
T        Si     0.351850000000     0.475750000000     0.550000000000     0          
T        Si     0.396700000000     0.394450000000     0.550000000000     0          
T        Si     0.000000000000     0.363450000000     0.550000000000     0          
T        Si     0.250000000000     0.438550000000     0.550000000000     0          
T        Si     0.148150000000     0.475750000000     0.550000000000     0          
T        Si     0.103300000000     0.394450000000     0.550000000000     0          
T        Si     0.351850000000     0.024250000000     0.450000000000     0          
T        Si     0.396700000000     0.105550000000     0.450000000000     0          
T        Si     0.398150000000     0.274250000000     0.450000000000     0          
T        Si     0.353300000000     0.355550000000     0.450000000000     0          
T        Si     0.250000000000     0.386550000000     0.450000000000     0          
T        Si     0.000000000000     0.311450000000     0.450000000000     0          
T        Si     0.101850000000     0.225750000000     0.550000000000     0          
T        Si     0.146700000000     0.144450000000     0.550000000000     0          
T        Si     0.250000000000     0.113450000000     0.550000000000     0          
T        Si     0.000000000000     0.188550000000     0.550000000000     0          
T        Si     0.398150000000     0.225750000000     0.550000000000     0          
T        Si     0.353300000000     0.144450000000     0.550000000000     0          
T        Si     0.101850000000     0.274250000000     0.450000000000     0          
T        Si     0.146700000000     0.355550000000     0.450000000000     0          
T        Si     0.148150000000     0.024250000000     0.650000000000     0          
T        Si     0.103300000000     0.105550000000     0.650000000000     0          
T        Si     0.000000000000     0.136550000000     0.650000000000     0          
T        Si     0.250000000000     0.061450000000     0.650000000000     0          
T        Si     0.351850000000     0.475750000000     0.750000000000     0          
T        Si     0.396700000000     0.394450000000     0.750000000000     0          
T        Si     0.000000000000     0.363450000000     0.750000000000     0          
T        Si     0.250000000000     0.438550000000     0.750000000000     0          
T        Si     0.148150000000     0.475750000000     0.750000000000     0          
T        Si     0.103300000000     0.394450000000     0.750000000000     0          
T        Si     0.351850000000     0.024250000000     0.650000000000     0          
T        Si     0.396700000000     0.105550000000     0.650000000000     0          
T        Si     0.398150000000     0.274250000000     0.650000000000     0          
T        Si     0.353300000000     0.355550000000     0.650000000000     0          
T        Si     0.250000000000     0.386550000000     0.650000000000     0          
T        Si     0.000000000000     0.311450000000     0.650000000000     0          
T        Si     0.101850000000     0.225750000000     0.750000000000     0          
T        Si     0.146700000000     0.144450000000     0.750000000000     0          
T        Si     0.250000000000     0.113450000000     0.750000000000     0          
T        Si     0.000000000000     0.188550000000     0.750000000000     0          
T        Si     0.398150000000     0.225750000000     0.750000000000     0          
T        Si     0.353300000000     0.144450000000     0.750000000000     0          
T        Si     0.101850000000     0.274250000000     0.650000000000     0          
T        Si     0.146700000000     0.355550000000     0.650000000000     0          
T        Si     0.148150000000     0.024250000000     0.850000000000     0          
T        Si     0.103300000000     0.105550000000     0.850000000000     0          
T        Si     0.000000000000     0.136550000000     0.850000000000     0          
T        Si     0.250000000000     0.061450000000     0.850000000000     0          
T        Si     0.351850000000     0.475750000000     0.950000000000     0          
T        Si     0.396700000000     0.394450000000     0.950000000000     0          
T        Si     0.000000000000     0.363450000000     0.950000000000     0          
T        Si     0.250000000000     0.438550000000     0.950000000000     0          
T        Si     0.148150000000     0.475750000000     0.950000000000     0          
T        Si     0.103300000000     0.394450000000     0.950000000000     0          
T        Si     0.351850000000     0.024250000000     0.850000000000     0          
T        Si     0.396700000000     0.105550000000     0.850000000000     0          
T        Si     0.398150000000     0.274250000000     0.850000000000     0          
T        Si     0.353300000000     0.355550000000     0.850000000000     0          
T        Si     0.250000000000     0.386550000000     0.850000000000     0          
T        Si     0.000000000000     0.311450000000     0.850000000000     0          
T        Si     0.101850000000     0.225750000000     0.950000000000     0          
T        Si     0.146700000000     0.144450000000     0.950000000000     0          
T        Si     0.250000000000     0.113450000000     0.950000000000     0          
T        Si     0.000000000000     0.188550000000     0.950000000000     0          
T        Si     0.398150000000     0.225750000000     0.950000000000     0          
T        Si     0.353300000000     0.144450000000     0.950000000000     0          
T        Si     0.101850000000     0.274250000000     0.850000000000     0          
T        Si     0.146700000000     0.355550000000     0.850000000000     0          
T        Si     0.148150000000     0.524250000000     0.050000000000     0          
T        Si     0.103300000000     0.605550000000     0.050000000000     0          
T        Si     0.000000000000     0.636550000000     0.050000000000     0          
T        Si     0.250000000000     0.561450000000     0.050000000000     0          
T        Si     0.351850000000     0.975750000000     0.150000000000     0          
T        Si     0.396700000000     0.894450000000     0.150000000000     0          
T        Si     0.000000000000     0.863450000000     0.150000000000     0          
T        Si     0.250000000000     0.938550000000     0.150000000000     0          
T        Si     0.148150000000     0.975750000000     0.150000000000     0          
T        Si     0.103300000000     0.894450000000     0.150000000000     0          
T        Si     0.351850000000     0.524250000000     0.050000000000     0          
T        Si     0.396700000000     0.605550000000     0.050000000000     0          
T        Si     0.398150000000     0.774250000000     0.050000000000     0          
T        Si     0.353300000000     0.855550000000     0.050000000000     0          
T        Si     0.250000000000     0.886550000000     0.050000000000     0          
T        Si     0.000000000000     0.811450000000     0.050000000000     0          
T        Si     0.101850000000     0.725750000000     0.150000000000     0          
T        Si     0.146700000000     0.644450000000     0.150000000000     0          
T        Si     0.250000000000     0.613450000000     0.150000000000     0          
T        Si     0.000000000000     0.688550000000     0.150000000000     0          
T        Si     0.398150000000     0.725750000000     0.150000000000     0          
T        Si     0.353300000000     0.644450000000     0.150000000000     0          
T        Si     0.101850000000     0.774250000000     0.050000000000     0          
T        Si     0.146700000000     0.855550000000     0.050000000000     0          
T        Si     0.148150000000     0.524250000000     0.250000000000     0          
T        Si     0.103300000000     0.605550000000     0.250000000000     0          
T        Si     0.000000000000     0.636550000000     0.250000000000     0          
T        Si     0.250000000000     0.561450000000     0.250000000000     0          
T        Si     0.351850000000     0.975750000000     0.350000000000     0          
T        Si     0.396700000000     0.894450000000     0.350000000000     0          
T        Si     0.000000000000     0.863450000000     0.350000000000     0          
T        Si     0.250000000000     0.938550000000     0.350000000000     0          
T        Si     0.148150000000     0.975750000000     0.350000000000     0          
T        Si     0.103300000000     0.894450000000     0.350000000000     0          
T        Si     0.351850000000     0.524250000000     0.250000000000     0          
T        Si     0.396700000000     0.605550000000     0.250000000000     0          
T        Si     0.398150000000     0.774250000000     0.250000000000     0          
T        Si     0.353300000000     0.855550000000     0.250000000000     0          
T        Si     0.250000000000     0.886550000000     0.250000000000     0          
T        Si     0.000000000000     0.811450000000     0.250000000000     0          
T        Si     0.101850000000     0.725750000000     0.350000000000     0          
T        Si     0.146700000000     0.644450000000     0.350000000000     0          
T        Si     0.250000000000     0.613450000000     0.350000000000     0          
T        Si     0.000000000000     0.688550000000     0.350000000000     0          
T        Si     0.398150000000     0.725750000000     0.350000000000     0          
T        Si     0.353300000000     0.644450000000     0.350000000000     0          
T        Si     0.101850000000     0.774250000000     0.250000000000     0          
T        Si     0.146700000000     0.855550000000     0.250000000000     0          
T        Si     0.148150000000     0.524250000000     0.450000000000     0          
T        Si     0.103300000000     0.605550000000     0.450000000000     0          
T        Si     0.000000000000     0.636550000000     0.450000000000     0          
T        Si     0.250000000000     0.561450000000     0.450000000000     0          
T        Si     0.351850000000     0.975750000000     0.550000000000     0          
T        Si     0.396700000000     0.894450000000     0.550000000000     0          
T        Si     0.000000000000     0.863450000000     0.550000000000     0          
T        Si     0.250000000000     0.938550000000     0.550000000000     0          
T        Si     0.148150000000     0.975750000000     0.550000000000     0          
T        Si     0.103300000000     0.894450000000     0.550000000000     0          
T        Si     0.351850000000     0.524250000000     0.450000000000     0          
T        Si     0.396700000000     0.605550000000     0.450000000000     0          
T        Si     0.398150000000     0.774250000000     0.450000000000     0          
T        Si     0.353300000000     0.855550000000     0.450000000000     0          
T        Si     0.250000000000     0.886550000000     0.450000000000     0          
T        Si     0.000000000000     0.811450000000     0.450000000000     0          
T        Si     0.101850000000     0.725750000000     0.550000000000     0          
T        Si     0.146700000000     0.644450000000     0.550000000000     0          
T        Si     0.250000000000     0.613450000000     0.550000000000     0          
T        Si     0.000000000000     0.688550000000     0.550000000000     0          
T        Si     0.398150000000     0.725750000000     0.550000000000     0          
T        Si     0.353300000000     0.644450000000     0.550000000000     0          
T        Si     0.101850000000     0.774250000000     0.450000000000     0          
T        Si     0.146700000000     0.855550000000     0.450000000000     0          
T        Si     0.148150000000     0.524250000000     0.650000000000     0          
T        Si     0.103300000000     0.605550000000     0.650000000000     0          
T        Si     0.000000000000     0.636550000000     0.650000000000     0          
T        Si     0.250000000000     0.561450000000     0.650000000000     0          
T        Si     0.351850000000     0.975750000000     0.750000000000     0          
T        Si     0.396700000000     0.894450000000     0.750000000000     0          
T        Si     0.000000000000     0.863450000000     0.750000000000     0          
T        Si     0.250000000000     0.938550000000     0.750000000000     0          
T        Si     0.148150000000     0.975750000000     0.750000000000     0          
T        Si     0.103300000000     0.894450000000     0.750000000000     0          
T        Si     0.351850000000     0.524250000000     0.650000000000     0          
T        Si     0.396700000000     0.605550000000     0.650000000000     0          
T        Si     0.398150000000     0.774250000000     0.650000000000     0          
T        Si     0.353300000000     0.855550000000     0.650000000000     0          
T        Si     0.250000000000     0.886550000000     0.650000000000     0          
T        Si     0.000000000000     0.811450000000     0.650000000000     0          
T        Si     0.101850000000     0.725750000000     0.750000000000     0          
T        Si     0.146700000000     0.644450000000     0.750000000000     0          
T        Si     0.250000000000     0.613450000000     0.750000000000     0          
T        Si     0.000000000000     0.688550000000     0.750000000000     0          
T        Si     0.398150000000     0.725750000000     0.750000000000     0          
T        Si     0.353300000000     0.644450000000     0.750000000000     0          
T        Si     0.101850000000     0.774250000000     0.650000000000     0          
T        Si     0.146700000000     0.855550000000     0.650000000000     0          
T        Si     0.148150000000     0.524250000000     0.850000000000     0          
T        Si     0.103300000000     0.605550000000     0.850000000000     0          
T        Si     0.000000000000     0.636550000000     0.850000000000     0          
T        Si     0.250000000000     0.561450000000     0.850000000000     0          
T        Si     0.351850000000     0.975750000000     0.950000000000     0          
T        Si     0.396700000000     0.894450000000     0.950000000000     0          
T        Si     0.000000000000     0.863450000000     0.950000000000     0          
T        Si     0.250000000000     0.938550000000     0.950000000000     0          
T        Si     0.148150000000     0.975750000000     0.950000000000     0          
T        Si     0.103300000000     0.894450000000     0.950000000000     0          
T        Si     0.351850000000     0.524250000000     0.850000000000     0          
T        Si     0.396700000000     0.605550000000     0.850000000000     0          
T        Si     0.398150000000     0.774250000000     0.850000000000     0          
T        Si     0.353300000000     0.855550000000     0.850000000000     0          
T        Si     0.250000000000     0.886550000000     0.850000000000     0          
T        Si     0.000000000000     0.811450000000     0.850000000000     0          
T        Si     0.101850000000     0.725750000000     0.950000000000     0          
T        Si     0.146700000000     0.644450000000     0.950000000000     0          
T        Si     0.250000000000     0.613450000000     0.950000000000     0          
T        Si     0.000000000000     0.688550000000     0.950000000000     0          
T        Si     0.398150000000     0.725750000000     0.950000000000     0          
T        Si     0.353300000000     0.644450000000     0.950000000000     0          
T        Si     0.101850000000     0.774250000000     0.850000000000     0          
T        Si     0.146700000000     0.855550000000     0.850000000000     0          
T        Si     0.648150000000     0.024250000000     0.050000000000     0          
T        Si     0.603300000000     0.105550000000     0.050000000000     0          
T        Si     0.500000000000     0.136550000000     0.050000000000     0          
T        Si     0.750000000000     0.061450000000     0.050000000000     0          
T        Si     0.851850000000     0.475750000000     0.150000000000     0          
T        Si     0.896700000000     0.394450000000     0.150000000000     0          
T        Si     0.500000000000     0.363450000000     0.150000000000     0          
T        Si     0.750000000000     0.438550000000     0.150000000000     0          
T        Si     0.648150000000     0.475750000000     0.150000000000     0          
T        Si     0.603300000000     0.394450000000     0.150000000000     0          
T        Si     0.851850000000     0.024250000000     0.050000000000     0          
T        Si     0.896700000000     0.105550000000     0.050000000000     0          
T        Si     0.898150000000     0.274250000000     0.050000000000     0          
T        Si     0.853300000000     0.355550000000     0.050000000000     0          
T        Si     0.750000000000     0.386550000000     0.050000000000     0          
T        Si     0.500000000000     0.311450000000     0.050000000000     0          
T        Si     0.601850000000     0.225750000000     0.150000000000     0          
T        Si     0.646700000000     0.144450000000     0.150000000000     0          
T        Si     0.750000000000     0.113450000000     0.150000000000     0          
T        Si     0.500000000000     0.188550000000     0.150000000000     0          
T        Si     0.898150000000     0.225750000000     0.150000000000     0          
T        Si     0.853300000000     0.144450000000     0.150000000000     0          
T        Si     0.601850000000     0.274250000000     0.050000000000     0          
T        Si     0.646700000000     0.355550000000     0.050000000000     0          
T        Si     0.648150000000     0.024250000000     0.250000000000     0          
T        Si     0.603300000000     0.105550000000     0.250000000000     0          
T        Si     0.500000000000     0.136550000000     0.250000000000     0          
T        Si     0.750000000000     0.061450000000     0.250000000000     0          
T        Si     0.851850000000     0.475750000000     0.350000000000     0          
T        Si     0.896700000000     0.394450000000     0.350000000000     0          
T        Si     0.500000000000     0.363450000000     0.350000000000     0          
T        Si     0.750000000000     0.438550000000     0.350000000000     0          
T        Si     0.648150000000     0.475750000000     0.350000000000     0          
T        Si     0.603300000000     0.394450000000     0.350000000000     0          
T        Si     0.851850000000     0.024250000000     0.250000000000     0          
T        Si     0.896700000000     0.105550000000     0.250000000000     0          
T        Si     0.898150000000     0.274250000000     0.250000000000     0          
T        Si     0.853300000000     0.355550000000     0.250000000000     0          
T        Si     0.750000000000     0.386550000000     0.250000000000     0          
T        Si     0.500000000000     0.311450000000     0.250000000000     0          
T        Si     0.601850000000     0.225750000000     0.350000000000     0          
T        Si     0.646700000000     0.144450000000     0.350000000000     0          
T        Si     0.750000000000     0.113450000000     0.350000000000     0          
T        Si     0.500000000000     0.188550000000     0.350000000000     0          
T        Si     0.898150000000     0.225750000000     0.350000000000     0          
T        Si     0.853300000000     0.144450000000     0.350000000000     0          
T        Si     0.601850000000     0.274250000000     0.250000000000     0          
T        Si     0.646700000000     0.355550000000     0.250000000000     0          
T        Si     0.648150000000     0.024250000000     0.450000000000     0          
T        Si     0.603300000000     0.105550000000     0.450000000000     0          
T        Si     0.500000000000     0.136550000000     0.450000000000     0          
T        Si     0.750000000000     0.061450000000     0.450000000000     0          
T        Si     0.851850000000     0.475750000000     0.550000000000     0          
T        Si     0.896700000000     0.394450000000     0.550000000000     0          
T        Si     0.500000000000     0.363450000000     0.550000000000     0          
T        Si     0.750000000000     0.438550000000     0.550000000000     0          
T        Si     0.648150000000     0.475750000000     0.550000000000     0          
T        Si     0.603300000000     0.394450000000     0.550000000000     0          
T        Si     0.851850000000     0.024250000000     0.450000000000     0          
T        Si     0.896700000000     0.105550000000     0.450000000000     0          
T        Si     0.898150000000     0.274250000000     0.450000000000     0          
T        Si     0.853300000000     0.355550000000     0.450000000000     0          
T        Si     0.750000000000     0.386550000000     0.450000000000     0          
T        Si     0.500000000000     0.311450000000     0.450000000000     0          
T        Si     0.601850000000     0.225750000000     0.550000000000     0          
T        Si     0.646700000000     0.144450000000     0.550000000000     0          
T        Si     0.750000000000     0.113450000000     0.550000000000     0          
T        Si     0.500000000000     0.188550000000     0.550000000000     0          
T        Si     0.898150000000     0.225750000000     0.550000000000     0          
T        Si     0.853300000000     0.144450000000     0.550000000000     0          
T        Si     0.601850000000     0.274250000000     0.450000000000     0          
T        Si     0.646700000000     0.355550000000     0.450000000000     0          
T        Si     0.648150000000     0.024250000000     0.650000000000     0          
T        Si     0.603300000000     0.105550000000     0.650000000000     0          
T        Si     0.500000000000     0.136550000000     0.650000000000     0          
T        Si     0.750000000000     0.061450000000     0.650000000000     0          
T        Si     0.851850000000     0.475750000000     0.750000000000     0          
T        Si     0.896700000000     0.394450000000     0.750000000000     0          
T        Si     0.500000000000     0.363450000000     0.750000000000     0          
T        Si     0.750000000000     0.438550000000     0.750000000000     0          
T        Si     0.648150000000     0.475750000000     0.750000000000     0          
T        Si     0.603300000000     0.394450000000     0.750000000000     0          
T        Si     0.851850000000     0.024250000000     0.650000000000     0          
T        Si     0.896700000000     0.105550000000     0.650000000000     0          
T        Si     0.898150000000     0.274250000000     0.650000000000     0          
T        Si     0.853300000000     0.355550000000     0.650000000000     0          
T        Si     0.750000000000     0.386550000000     0.650000000000     0          
T        Si     0.500000000000     0.311450000000     0.650000000000     0          
T        Si     0.601850000000     0.225750000000     0.750000000000     0          
T        Si     0.646700000000     0.144450000000     0.750000000000     0          
T        Si     0.750000000000     0.113450000000     0.750000000000     0          
T        Si     0.500000000000     0.188550000000     0.750000000000     0          
T        Si     0.898150000000     0.225750000000     0.750000000000     0          
T        Si     0.853300000000     0.144450000000     0.750000000000     0          
T        Si     0.601850000000     0.274250000000     0.650000000000     0          
T        Si     0.646700000000     0.355550000000     0.650000000000     0          
T        Si     0.648150000000     0.024250000000     0.850000000000     0          
T        Si     0.603300000000     0.105550000000     0.850000000000     0          
T        Si     0.500000000000     0.136550000000     0.850000000000     0          
T        Si     0.750000000000     0.061450000000     0.850000000000     0          
T        Si     0.851850000000     0.475750000000     0.950000000000     0          
T        Si     0.896700000000     0.394450000000     0.950000000000     0          
T        Si     0.500000000000     0.363450000000     0.950000000000     0          
T        Si     0.750000000000     0.438550000000     0.950000000000     0          
T        Si     0.648150000000     0.475750000000     0.950000000000     0          
T        Si     0.603300000000     0.394450000000     0.950000000000     0          
T        Si     0.851850000000     0.024250000000     0.850000000000     0          
T        Si     0.896700000000     0.105550000000     0.850000000000     0          
T        Si     0.898150000000     0.274250000000     0.850000000000     0          
T        Si     0.853300000000     0.355550000000     0.850000000000     0          
T        Si     0.750000000000     0.386550000000     0.850000000000     0          
T        Si     0.500000000000     0.311450000000     0.850000000000     0          
T        Si     0.601850000000     0.225750000000     0.950000000000     0          
T        Si     0.646700000000     0.144450000000     0.950000000000     0          
T        Si     0.750000000000     0.113450000000     0.950000000000     0          
T        Si     0.500000000000     0.188550000000     0.950000000000     0          
T        Si     0.898150000000     0.225750000000     0.950000000000     0          
T        Si     0.853300000000     0.144450000000     0.950000000000     0          
T        Si     0.601850000000     0.274250000000     0.850000000000     0          
T        Si     0.646700000000     0.355550000000     0.850000000000     0          
T        Si     0.648150000000     0.524250000000     0.050000000000     0          
T        Si     0.603300000000     0.605550000000     0.050000000000     0          
T        Si     0.500000000000     0.636550000000     0.050000000000     0          
T        Si     0.750000000000     0.561450000000     0.050000000000     0          
T        Si     0.851850000000     0.975750000000     0.150000000000     0          
T        Si     0.896700000000     0.894450000000     0.150000000000     0          
T        Si     0.500000000000     0.863450000000     0.150000000000     0          
T        Si     0.750000000000     0.938550000000     0.150000000000     0          
T        Si     0.648150000000     0.975750000000     0.150000000000     0          
T        Si     0.603300000000     0.894450000000     0.150000000000     0          
T        Si     0.851850000000     0.524250000000     0.050000000000     0          
T        Si     0.896700000000     0.605550000000     0.050000000000     0          
T        Si     0.898150000000     0.774250000000     0.050000000000     0          
T        Si     0.853300000000     0.855550000000     0.050000000000     0          
T        Si     0.750000000000     0.886550000000     0.050000000000     0          
T        Si     0.500000000000     0.811450000000     0.050000000000     0          
T        Si     0.601850000000     0.725750000000     0.150000000000     0          
T        Si     0.646700000000     0.644450000000     0.150000000000     0          
T        Si     0.750000000000     0.613450000000     0.150000000000     0          
T        Si     0.500000000000     0.688550000000     0.150000000000     0          
T        Si     0.898150000000     0.725750000000     0.150000000000     0          
T        Si     0.853300000000     0.644450000000     0.150000000000     0          
T        Si     0.601850000000     0.774250000000     0.050000000000     0          
T        Si     0.646700000000     0.855550000000     0.050000000000     0          
T        Si     0.648150000000     0.524250000000     0.250000000000     0          
T        Si     0.603300000000     0.605550000000     0.250000000000     0          
T        Si     0.500000000000     0.636550000000     0.250000000000     0          
T        Si     0.750000000000     0.561450000000     0.250000000000     0          
T        Si     0.851850000000     0.975750000000     0.350000000000     0          
T        Si     0.896700000000     0.894450000000     0.350000000000     0          
T        Si     0.500000000000     0.863450000000     0.350000000000     0          
T        Si     0.750000000000     0.938550000000     0.350000000000     0          
T        Si     0.648150000000     0.975750000000     0.350000000000     0          
T        Si     0.603300000000     0.894450000000     0.350000000000     0          
T        Si     0.851850000000     0.524250000000     0.250000000000     0          
T        Si     0.896700000000     0.605550000000     0.250000000000     0          
T        Si     0.898150000000     0.774250000000     0.250000000000     0          
T        Si     0.853300000000     0.855550000000     0.250000000000     0          
T        Si     0.750000000000     0.886550000000     0.250000000000     0          
T        Si     0.500000000000     0.811450000000     0.250000000000     0          
T        Si     0.601850000000     0.725750000000     0.350000000000     0          
T        Si     0.646700000000     0.644450000000     0.350000000000     0          
T        Si     0.750000000000     0.613450000000     0.350000000000     0          
T        Si     0.500000000000     0.688550000000     0.350000000000     0          
T        Si     0.898150000000     0.725750000000     0.350000000000     0          
T        Si     0.853300000000     0.644450000000     0.350000000000     0          
T        Si     0.601850000000     0.774250000000     0.250000000000     0          
T        Si     0.646700000000     0.855550000000     0.250000000000     0          
T        Si     0.648150000000     0.524250000000     0.450000000000     0          
T        Si     0.603300000000     0.605550000000     0.450000000000     0          
T        Si     0.500000000000     0.636550000000     0.450000000000     0          
T        Si     0.750000000000     0.561450000000     0.450000000000     0          
T        Si     0.851850000000     0.975750000000     0.550000000000     0          
T        Si     0.896700000000     0.894450000000     0.550000000000     0          
T        Si     0.500000000000     0.863450000000     0.550000000000     0          
T        Si     0.750000000000     0.938550000000     0.550000000000     0          
T        Si     0.648150000000     0.975750000000     0.550000000000     0          
T        Si     0.603300000000     0.894450000000     0.550000000000     0          
T        Si     0.851850000000     0.524250000000     0.450000000000     0          
T        Si     0.896700000000     0.605550000000     0.450000000000     0          
T        Si     0.898150000000     0.774250000000     0.450000000000     0          
T        Si     0.853300000000     0.855550000000     0.450000000000     0          
T        Si     0.750000000000     0.886550000000     0.450000000000     0          
T        Si     0.500000000000     0.811450000000     0.450000000000     0          
T        Si     0.601850000000     0.725750000000     0.550000000000     0          
T        Si     0.646700000000     0.644450000000     0.550000000000     0          
T        Si     0.750000000000     0.613450000000     0.550000000000     0          
T        Si     0.500000000000     0.688550000000     0.550000000000     0          
T        Si     0.898150000000     0.725750000000     0.550000000000     0          
T        Si     0.853300000000     0.644450000000     0.550000000000     0          
T        Si     0.601850000000     0.774250000000     0.450000000000     0          
T        Si     0.646700000000     0.855550000000     0.450000000000     0          
T        Si     0.648150000000     0.524250000000     0.650000000000     0          
T        Si     0.603300000000     0.605550000000     0.650000000000     0          
T        Si     0.500000000000     0.636550000000     0.650000000000     0          
T        Si     0.750000000000     0.561450000000     0.650000000000     0          
T        Si     0.851850000000     0.975750000000     0.750000000000     0          
T        Si     0.896700000000     0.894450000000     0.750000000000     0          
T        Si     0.500000000000     0.863450000000     0.750000000000     0          
T        Si     0.750000000000     0.938550000000     0.750000000000     0          
T        Si     0.648150000000     0.975750000000     0.750000000000     0          
T        Si     0.603300000000     0.894450000000     0.750000000000     0          
T        Si     0.851850000000     0.524250000000     0.650000000000     0          
T        Si     0.896700000000     0.605550000000     0.650000000000     0          
T        Si     0.898150000000     0.774250000000     0.650000000000     0          
T        Si     0.853300000000     0.855550000000     0.650000000000     0          
T        Si     0.750000000000     0.886550000000     0.650000000000     0          
T        Si     0.500000000000     0.811450000000     0.650000000000     0          
T        Si     0.601850000000     0.725750000000     0.750000000000     0          
T        Si     0.646700000000     0.644450000000     0.750000000000     0          
T        Si     0.750000000000     0.613450000000     0.750000000000     0          
T        Si     0.500000000000     0.688550000000     0.750000000000     0          
T        Si     0.898150000000     0.725750000000     0.750000000000     0          
T        Si     0.853300000000     0.644450000000     0.750000000000     0          
T        Si     0.601850000000     0.774250000000     0.650000000000     0          
T        Si     0.646700000000     0.855550000000     0.650000000000     0          
T        Si     0.648150000000     0.524250000000     0.850000000000     0          
T        Si     0.603300000000     0.605550000000     0.850000000000     0          
T        Si     0.500000000000     0.636550000000     0.850000000000     0          
T        Si     0.750000000000     0.561450000000     0.850000000000     0          
T        Si     0.851850000000     0.975750000000     0.950000000000     0          
T        Si     0.896700000000     0.894450000000     0.950000000000     0          
T        Si     0.500000000000     0.863450000000     0.950000000000     0          
T        Si     0.750000000000     0.938550000000     0.950000000000     0          
T        Si     0.648150000000     0.975750000000     0.950000000000     0          
T        Si     0.603300000000     0.894450000000     0.950000000000     0          
T        Si     0.851850000000     0.524250000000     0.850000000000     0          
T        Si     0.896700000000     0.605550000000     0.850000000000     0          
T        Si     0.898150000000     0.774250000000     0.850000000000     0          
T        Si     0.853300000000     0.855550000000     0.850000000000     0          
T        Si     0.750000000000     0.886550000000     0.850000000000     0          
T        Si     0.500000000000     0.811450000000     0.850000000000     0          
T        Si     0.601850000000     0.725750000000     0.950000000000     0          
T        Si     0.646700000000     0.644450000000     0.950000000000     0          
T        Si     0.750000000000     0.613450000000     0.950000000000     0          
T        Si     0.500000000000     0.688550000000     0.950000000000     0          
T        Si     0.898150000000     0.725750000000     0.950000000000     0          
T        Si     0.853300000000     0.644450000000     0.950000000000     0          
T        Si     0.601850000000     0.774250000000     0.850000000000     0          
T        Si     0.646700000000     0.855550000000     0.850000000000     0          
O        O      0.136200000000     0.000000000000     0.000000000000     0          
O        O      0.203450000000     0.035350000000     0.050000000000     0          
O        O      0.116250000000     0.061650000000     0.050000000000     0          
O        O      0.046550000000     0.110450000000     0.050000000000     0          
O        O      0.125000000000     0.125000000000     0.000000000000     0          
O        O      0.000000000000     0.162550000000     0.100000000000     0          
O        O      0.363800000000     0.000000000000     0.100000000000     0          
O        O      0.296550000000     0.464650000000     0.150000000000     0          
O        O      0.383750000000     0.438350000000     0.150000000000     0          
O        O      0.453450000000     0.389550000000     0.150000000000     0          
O        O      0.375000000000     0.375000000000     0.100000000000     0          
O        O      0.000000000000     0.337450000000     0.000000000000     0          
O        O      0.203450000000     0.464650000000     0.150000000000     0          
O        O      0.116250000000     0.438350000000     0.150000000000     0          
O        O      0.046550000000     0.389550000000     0.150000000000     0          
O        O      0.125000000000     0.375000000000     0.000000000000     0          
O        O      0.000000000000     0.337450000000     0.100000000000     0          
O        O      0.296550000000     0.035350000000     0.050000000000     0          
O        O      0.383750000000     0.061650000000     0.050000000000     0          
O        O      0.453450000000     0.110450000000     0.050000000000     0          
O        O      0.375000000000     0.125000000000     0.100000000000     0          
O        O      0.000000000000     0.162550000000     0.000000000000     0          
O        O      0.363800000000     0.000000000000     0.000000000000     0          
O        O      0.375000000000     0.375000000000     0.000000000000     0          
O        O      0.136200000000     0.000000000000     0.100000000000     0          
O        O      0.125000000000     0.125000000000     0.100000000000     0          
O        O      0.375000000000     0.125000000000     0.000000000000     0          
O        O      0.125000000000     0.375000000000     0.100000000000     0          
O        O      0.386200000000     0.250000000000     0.000000000000     0          
O        O      0.453450000000     0.285350000000     0.050000000000     0          
O        O      0.366250000000     0.311650000000     0.050000000000     0          
O        O      0.296550000000     0.360450000000     0.050000000000     0          
O        O      0.250000000000     0.412550000000     0.100000000000     0          
O        O      0.113800000000     0.250000000000     0.100000000000     0          
O        O      0.046550000000     0.214650000000     0.150000000000     0          
O        O      0.133750000000     0.188350000000     0.150000000000     0          
O        O      0.203450000000     0.139550000000     0.150000000000     0          
O        O      0.250000000000     0.087450000000     0.000000000000     0          
O        O      0.453450000000     0.214650000000     0.150000000000     0          
O        O      0.366250000000     0.188350000000     0.150000000000     0          
O        O      0.296550000000     0.139550000000     0.150000000000     0          
O        O      0.250000000000     0.087450000000     0.100000000000     0          
O        O      0.046550000000     0.285350000000     0.050000000000     0          
O        O      0.133750000000     0.311650000000     0.050000000000     0          
O        O      0.203450000000     0.360450000000     0.050000000000     0          
O        O      0.250000000000     0.412550000000     0.000000000000     0          
O        O      0.113800000000     0.250000000000     0.000000000000     0          
O        O      0.386200000000     0.250000000000     0.100000000000     0          
O        O      0.136200000000     0.000000000000     0.200000000000     0          
O        O      0.203450000000     0.035350000000     0.250000000000     0          
O        O      0.116250000000     0.061650000000     0.250000000000     0          
O        O      0.046550000000     0.110450000000     0.250000000000     0          
O        O      0.125000000000     0.125000000000     0.200000000000     0          
O        O      0.000000000000     0.162550000000     0.300000000000     0          
O        O      0.363800000000     0.000000000000     0.300000000000     0          
O        O      0.296550000000     0.464650000000     0.350000000000     0          
O        O      0.383750000000     0.438350000000     0.350000000000     0          
O        O      0.453450000000     0.389550000000     0.350000000000     0          
O        O      0.375000000000     0.375000000000     0.300000000000     0          
O        O      0.000000000000     0.337450000000     0.200000000000     0          
O        O      0.203450000000     0.464650000000     0.350000000000     0          
O        O      0.116250000000     0.438350000000     0.350000000000     0          
O        O      0.046550000000     0.389550000000     0.350000000000     0          
O        O      0.125000000000     0.375000000000     0.200000000000     0          
O        O      0.000000000000     0.337450000000     0.300000000000     0          
O        O      0.296550000000     0.035350000000     0.250000000000     0          
O        O      0.383750000000     0.061650000000     0.250000000000     0          
O        O      0.453450000000     0.110450000000     0.250000000000     0          
O        O      0.375000000000     0.125000000000     0.300000000000     0          
O        O      0.000000000000     0.162550000000     0.200000000000     0          
O        O      0.363800000000     0.000000000000     0.200000000000     0          
O        O      0.375000000000     0.375000000000     0.200000000000     0          
O        O      0.136200000000     0.000000000000     0.300000000000     0          
O        O      0.125000000000     0.125000000000     0.300000000000     0          
O        O      0.375000000000     0.125000000000     0.200000000000     0          
O        O      0.125000000000     0.375000000000     0.300000000000     0          
O        O      0.386200000000     0.250000000000     0.200000000000     0          
O        O      0.453450000000     0.285350000000     0.250000000000     0          
O        O      0.366250000000     0.311650000000     0.250000000000     0          
O        O      0.296550000000     0.360450000000     0.250000000000     0          
O        O      0.250000000000     0.412550000000     0.300000000000     0          
O        O      0.113800000000     0.250000000000     0.300000000000     0          
O        O      0.046550000000     0.214650000000     0.350000000000     0          
O        O      0.133750000000     0.188350000000     0.350000000000     0          
O        O      0.203450000000     0.139550000000     0.350000000000     0          
O        O      0.250000000000     0.087450000000     0.200000000000     0          
O        O      0.453450000000     0.214650000000     0.350000000000     0          
O        O      0.366250000000     0.188350000000     0.350000000000     0          
O        O      0.296550000000     0.139550000000     0.350000000000     0          
O        O      0.250000000000     0.087450000000     0.300000000000     0          
O        O      0.046550000000     0.285350000000     0.250000000000     0          
O        O      0.133750000000     0.311650000000     0.250000000000     0          
O        O      0.203450000000     0.360450000000     0.250000000000     0          
O        O      0.250000000000     0.412550000000     0.200000000000     0          
O        O      0.113800000000     0.250000000000     0.200000000000     0          
O        O      0.386200000000     0.250000000000     0.300000000000     0          
O        O      0.136200000000     0.000000000000     0.400000000000     0          
O        O      0.203450000000     0.035350000000     0.450000000000     0          
O        O      0.116250000000     0.061650000000     0.450000000000     0          
O        O      0.046550000000     0.110450000000     0.450000000000     0          
O        O      0.125000000000     0.125000000000     0.400000000000     0          
O        O      0.000000000000     0.162550000000     0.500000000000     0          
O        O      0.363800000000     0.000000000000     0.500000000000     0          
O        O      0.296550000000     0.464650000000     0.550000000000     0          
O        O      0.383750000000     0.438350000000     0.550000000000     0          
O        O      0.453450000000     0.389550000000     0.550000000000     0          
O        O      0.375000000000     0.375000000000     0.500000000000     0          
O        O      0.000000000000     0.337450000000     0.400000000000     0          
O        O      0.203450000000     0.464650000000     0.550000000000     0          
O        O      0.116250000000     0.438350000000     0.550000000000     0          
O        O      0.046550000000     0.389550000000     0.550000000000     0          
O        O      0.125000000000     0.375000000000     0.400000000000     0          
O        O      0.000000000000     0.337450000000     0.500000000000     0          
O        O      0.296550000000     0.035350000000     0.450000000000     0          
O        O      0.383750000000     0.061650000000     0.450000000000     0          
O        O      0.453450000000     0.110450000000     0.450000000000     0          
O        O      0.375000000000     0.125000000000     0.500000000000     0          
O        O      0.000000000000     0.162550000000     0.400000000000     0          
O        O      0.363800000000     0.000000000000     0.400000000000     0          
O        O      0.375000000000     0.375000000000     0.400000000000     0          
O        O      0.136200000000     0.000000000000     0.500000000000     0          
O        O      0.125000000000     0.125000000000     0.500000000000     0          
O        O      0.375000000000     0.125000000000     0.400000000000     0          
O        O      0.125000000000     0.375000000000     0.500000000000     0          
O        O      0.386200000000     0.250000000000     0.400000000000     0          
O        O      0.453450000000     0.285350000000     0.450000000000     0          
O        O      0.366250000000     0.311650000000     0.450000000000     0          
O        O      0.296550000000     0.360450000000     0.450000000000     0          
O        O      0.250000000000     0.412550000000     0.500000000000     0          
O        O      0.113800000000     0.250000000000     0.500000000000     0          
O        O      0.046550000000     0.214650000000     0.550000000000     0          
O        O      0.133750000000     0.188350000000     0.550000000000     0          
O        O      0.203450000000     0.139550000000     0.550000000000     0          
O        O      0.250000000000     0.087450000000     0.400000000000     0          
O        O      0.453450000000     0.214650000000     0.550000000000     0          
O        O      0.366250000000     0.188350000000     0.550000000000     0          
O        O      0.296550000000     0.139550000000     0.550000000000     0          
O        O      0.250000000000     0.087450000000     0.500000000000     0          
O        O      0.046550000000     0.285350000000     0.450000000000     0          
O        O      0.133750000000     0.311650000000     0.450000000000     0          
O        O      0.203450000000     0.360450000000     0.450000000000     0          
O        O      0.250000000000     0.412550000000     0.400000000000     0          
O        O      0.113800000000     0.250000000000     0.400000000000     0          
O        O      0.386200000000     0.250000000000     0.500000000000     0          
O        O      0.136200000000     0.000000000000     0.600000000000     0          
O        O      0.203450000000     0.035350000000     0.650000000000     0          
O        O      0.116250000000     0.061650000000     0.650000000000     0          
O        O      0.046550000000     0.110450000000     0.650000000000     0          
O        O      0.125000000000     0.125000000000     0.600000000000     0          
O        O      0.000000000000     0.162550000000     0.700000000000     0          
O        O      0.363800000000     0.000000000000     0.700000000000     0          
O        O      0.296550000000     0.464650000000     0.750000000000     0          
O        O      0.383750000000     0.438350000000     0.750000000000     0          
O        O      0.453450000000     0.389550000000     0.750000000000     0          
O        O      0.375000000000     0.375000000000     0.700000000000     0          
O        O      0.000000000000     0.337450000000     0.600000000000     0          
O        O      0.203450000000     0.464650000000     0.750000000000     0          
O        O      0.116250000000     0.438350000000     0.750000000000     0          
O        O      0.046550000000     0.389550000000     0.750000000000     0          
O        O      0.125000000000     0.375000000000     0.600000000000     0          
O        O      0.000000000000     0.337450000000     0.700000000000     0          
O        O      0.296550000000     0.035350000000     0.650000000000     0          
O        O      0.383750000000     0.061650000000     0.650000000000     0          
O        O      0.453450000000     0.110450000000     0.650000000000     0          
O        O      0.375000000000     0.125000000000     0.700000000000     0          
O        O      0.000000000000     0.162550000000     0.600000000000     0          
O        O      0.363800000000     0.000000000000     0.600000000000     0          
O        O      0.375000000000     0.375000000000     0.600000000000     0          
O        O      0.136200000000     0.000000000000     0.700000000000     0          
O        O      0.125000000000     0.125000000000     0.700000000000     0          
O        O      0.375000000000     0.125000000000     0.600000000000     0          
O        O      0.125000000000     0.375000000000     0.700000000000     0          
O        O      0.386200000000     0.250000000000     0.600000000000     0          
O        O      0.453450000000     0.285350000000     0.650000000000     0          
O        O      0.366250000000     0.311650000000     0.650000000000     0          
O        O      0.296550000000     0.360450000000     0.650000000000     0          
O        O      0.250000000000     0.412550000000     0.700000000000     0          
O        O      0.113800000000     0.250000000000     0.700000000000     0          
O        O      0.046550000000     0.214650000000     0.750000000000     0          
O        O      0.133750000000     0.188350000000     0.750000000000     0          
O        O      0.203450000000     0.139550000000     0.750000000000     0          
O        O      0.250000000000     0.087450000000     0.600000000000     0          
O        O      0.453450000000     0.214650000000     0.750000000000     0          
O        O      0.366250000000     0.188350000000     0.750000000000     0          
O        O      0.296550000000     0.139550000000     0.750000000000     0          
O        O      0.250000000000     0.087450000000     0.700000000000     0          
O        O      0.046550000000     0.285350000000     0.650000000000     0          
O        O      0.133750000000     0.311650000000     0.650000000000     0          
O        O      0.203450000000     0.360450000000     0.650000000000     0          
O        O      0.250000000000     0.412550000000     0.600000000000     0          
O        O      0.113800000000     0.250000000000     0.600000000000     0          
O        O      0.386200000000     0.250000000000     0.700000000000     0          
O        O      0.136200000000     0.000000000000     0.800000000000     0          
O        O      0.203450000000     0.035350000000     0.850000000000     0          
O        O      0.116250000000     0.061650000000     0.850000000000     0          
O        O      0.046550000000     0.110450000000     0.850000000000     0          
O        O      0.125000000000     0.125000000000     0.800000000000     0          
O        O      0.000000000000     0.162550000000     0.900000000000     0          
O        O      0.363800000000     0.000000000000     0.900000000000     0          
O        O      0.296550000000     0.464650000000     0.950000000000     0          
O        O      0.383750000000     0.438350000000     0.950000000000     0          
O        O      0.453450000000     0.389550000000     0.950000000000     0          
O        O      0.375000000000     0.375000000000     0.900000000000     0          
O        O      0.000000000000     0.337450000000     0.800000000000     0          
O        O      0.203450000000     0.464650000000     0.950000000000     0          
O        O      0.116250000000     0.438350000000     0.950000000000     0          
O        O      0.046550000000     0.389550000000     0.950000000000     0          
O        O      0.125000000000     0.375000000000     0.800000000000     0          
O        O      0.000000000000     0.337450000000     0.900000000000     0          
O        O      0.296550000000     0.035350000000     0.850000000000     0          
O        O      0.383750000000     0.061650000000     0.850000000000     0          
O        O      0.453450000000     0.110450000000     0.850000000000     0          
O        O      0.375000000000     0.125000000000     0.900000000000     0          
O        O      0.000000000000     0.162550000000     0.800000000000     0          
O        O      0.363800000000     0.000000000000     0.800000000000     0          
O        O      0.375000000000     0.375000000000     0.800000000000     0          
O        O      0.136200000000     0.000000000000     0.900000000000     0          
O        O      0.125000000000     0.125000000000     0.900000000000     0          
O        O      0.375000000000     0.125000000000     0.800000000000     0          
O        O      0.125000000000     0.375000000000     0.900000000000     0          
O        O      0.386200000000     0.250000000000     0.800000000000     0          
O        O      0.453450000000     0.285350000000     0.850000000000     0          
O        O      0.366250000000     0.311650000000     0.850000000000     0          
O        O      0.296550000000     0.360450000000     0.850000000000     0          
O        O      0.250000000000     0.412550000000     0.900000000000     0          
O        O      0.113800000000     0.250000000000     0.900000000000     0          
O        O      0.046550000000     0.214650000000     0.950000000000     0          
O        O      0.133750000000     0.188350000000     0.950000000000     0          
O        O      0.203450000000     0.139550000000     0.950000000000     0          
O        O      0.250000000000     0.087450000000     0.800000000000     0          
O        O      0.453450000000     0.214650000000     0.950000000000     0          
O        O      0.366250000000     0.188350000000     0.950000000000     0          
O        O      0.296550000000     0.139550000000     0.950000000000     0          
O        O      0.250000000000     0.087450000000     0.900000000000     0          
O        O      0.046550000000     0.285350000000     0.850000000000     0          
O        O      0.133750000000     0.311650000000     0.850000000000     0          
O        O      0.203450000000     0.360450000000     0.850000000000     0          
O        O      0.250000000000     0.412550000000     0.800000000000     0          
O        O      0.113800000000     0.250000000000     0.800000000000     0          
O        O      0.386200000000     0.250000000000     0.900000000000     0          
O        O      0.136200000000     0.500000000000     0.000000000000     0          
O        O      0.203450000000     0.535350000000     0.050000000000     0          
O        O      0.116250000000     0.561650000000     0.050000000000     0          
O        O      0.046550000000     0.610450000000     0.050000000000     0          
O        O      0.125000000000     0.625000000000     0.000000000000     0          
O        O      0.000000000000     0.662550000000     0.100000000000     0          
O        O      0.363800000000     0.500000000000     0.100000000000     0          
O        O      0.296550000000     0.964650000000     0.150000000000     0          
O        O      0.383750000000     0.938350000000     0.150000000000     0          
O        O      0.453450000000     0.889550000000     0.150000000000     0          
O        O      0.375000000000     0.875000000000     0.100000000000     0          
O        O      0.000000000000     0.837450000000     0.000000000000     0          
O        O      0.203450000000     0.964650000000     0.150000000000     0          
O        O      0.116250000000     0.938350000000     0.150000000000     0          
O        O      0.046550000000     0.889550000000     0.150000000000     0          
O        O      0.125000000000     0.875000000000     0.000000000000     0          
O        O      0.000000000000     0.837450000000     0.100000000000     0          
O        O      0.296550000000     0.535350000000     0.050000000000     0          
O        O      0.383750000000     0.561650000000     0.050000000000     0          
O        O      0.453450000000     0.610450000000     0.050000000000     0          
O        O      0.375000000000     0.625000000000     0.100000000000     0          
O        O      0.000000000000     0.662550000000     0.000000000000     0          
O        O      0.363800000000     0.500000000000     0.000000000000     0          
O        O      0.375000000000     0.875000000000     0.000000000000     0          
O        O      0.136200000000     0.500000000000     0.100000000000     0          
O        O      0.125000000000     0.625000000000     0.100000000000     0          
O        O      0.375000000000     0.625000000000     0.000000000000     0          
O        O      0.125000000000     0.875000000000     0.100000000000     0          
O        O      0.386200000000     0.750000000000     0.000000000000     0          
O        O      0.453450000000     0.785350000000     0.050000000000     0          
O        O      0.366250000000     0.811650000000     0.050000000000     0          
O        O      0.296550000000     0.860450000000     0.050000000000     0          
O        O      0.250000000000     0.912550000000     0.100000000000     0          
O        O      0.113800000000     0.750000000000     0.100000000000     0          
O        O      0.046550000000     0.714650000000     0.150000000000     0          
O        O      0.133750000000     0.688350000000     0.150000000000     0          
O        O      0.203450000000     0.639550000000     0.150000000000     0          
O        O      0.250000000000     0.587450000000     0.000000000000     0          
O        O      0.453450000000     0.714650000000     0.150000000000     0          
O        O      0.366250000000     0.688350000000     0.150000000000     0          
O        O      0.296550000000     0.639550000000     0.150000000000     0          
O        O      0.250000000000     0.587450000000     0.100000000000     0          
O        O      0.046550000000     0.785350000000     0.050000000000     0          
O        O      0.133750000000     0.811650000000     0.050000000000     0          
O        O      0.203450000000     0.860450000000     0.050000000000     0          
O        O      0.250000000000     0.912550000000     0.000000000000     0          
O        O      0.113800000000     0.750000000000     0.000000000000     0          
O        O      0.386200000000     0.750000000000     0.100000000000     0          
O        O      0.136200000000     0.500000000000     0.200000000000     0          
O        O      0.203450000000     0.535350000000     0.250000000000     0          
O        O      0.116250000000     0.561650000000     0.250000000000     0          
O        O      0.046550000000     0.610450000000     0.250000000000     0          
O        O      0.125000000000     0.625000000000     0.200000000000     0          
O        O      0.000000000000     0.662550000000     0.300000000000     0          
O        O      0.363800000000     0.500000000000     0.300000000000     0          
O        O      0.296550000000     0.964650000000     0.350000000000     0          
O        O      0.383750000000     0.938350000000     0.350000000000     0          
O        O      0.453450000000     0.889550000000     0.350000000000     0          
O        O      0.375000000000     0.875000000000     0.300000000000     0          
O        O      0.000000000000     0.837450000000     0.200000000000     0          
O        O      0.203450000000     0.964650000000     0.350000000000     0          
O        O      0.116250000000     0.938350000000     0.350000000000     0          
O        O      0.046550000000     0.889550000000     0.350000000000     0          
O        O      0.125000000000     0.875000000000     0.200000000000     0          
O        O      0.000000000000     0.837450000000     0.300000000000     0          
O        O      0.296550000000     0.535350000000     0.250000000000     0          
O        O      0.383750000000     0.561650000000     0.250000000000     0          
O        O      0.453450000000     0.610450000000     0.250000000000     0          
O        O      0.375000000000     0.625000000000     0.300000000000     0          
O        O      0.000000000000     0.662550000000     0.200000000000     0          
O        O      0.363800000000     0.500000000000     0.200000000000     0          
O        O      0.375000000000     0.875000000000     0.200000000000     0          
O        O      0.136200000000     0.500000000000     0.300000000000     0          
O        O      0.125000000000     0.625000000000     0.300000000000     0          
O        O      0.375000000000     0.625000000000     0.200000000000     0          
O        O      0.125000000000     0.875000000000     0.300000000000     0          
O        O      0.386200000000     0.750000000000     0.200000000000     0          
O        O      0.453450000000     0.785350000000     0.250000000000     0          
O        O      0.366250000000     0.811650000000     0.250000000000     0          
O        O      0.296550000000     0.860450000000     0.250000000000     0          
O        O      0.250000000000     0.912550000000     0.300000000000     0          
O        O      0.113800000000     0.750000000000     0.300000000000     0          
O        O      0.046550000000     0.714650000000     0.350000000000     0          
O        O      0.133750000000     0.688350000000     0.350000000000     0          
O        O      0.203450000000     0.639550000000     0.350000000000     0          
O        O      0.250000000000     0.587450000000     0.200000000000     0          
O        O      0.453450000000     0.714650000000     0.350000000000     0          
O        O      0.366250000000     0.688350000000     0.350000000000     0          
O        O      0.296550000000     0.639550000000     0.350000000000     0          
O        O      0.250000000000     0.587450000000     0.300000000000     0          
O        O      0.046550000000     0.785350000000     0.250000000000     0          
O        O      0.133750000000     0.811650000000     0.250000000000     0          
O        O      0.203450000000     0.860450000000     0.250000000000     0          
O        O      0.250000000000     0.912550000000     0.200000000000     0          
O        O      0.113800000000     0.750000000000     0.200000000000     0          
O        O      0.386200000000     0.750000000000     0.300000000000     0          
O        O      0.136200000000     0.500000000000     0.400000000000     0          
O        O      0.203450000000     0.535350000000     0.450000000000     0          
O        O      0.116250000000     0.561650000000     0.450000000000     0          
O        O      0.046550000000     0.610450000000     0.450000000000     0          
O        O      0.125000000000     0.625000000000     0.400000000000     0          
O        O      0.000000000000     0.662550000000     0.500000000000     0          
O        O      0.363800000000     0.500000000000     0.500000000000     0          
O        O      0.296550000000     0.964650000000     0.550000000000     0          
O        O      0.383750000000     0.938350000000     0.550000000000     0          
O        O      0.453450000000     0.889550000000     0.550000000000     0          
O        O      0.375000000000     0.875000000000     0.500000000000     0          
O        O      0.000000000000     0.837450000000     0.400000000000     0          
O        O      0.203450000000     0.964650000000     0.550000000000     0          
O        O      0.116250000000     0.938350000000     0.550000000000     0          
O        O      0.046550000000     0.889550000000     0.550000000000     0          
O        O      0.125000000000     0.875000000000     0.400000000000     0          
O        O      0.000000000000     0.837450000000     0.500000000000     0          
O        O      0.296550000000     0.535350000000     0.450000000000     0          
O        O      0.383750000000     0.561650000000     0.450000000000     0          
O        O      0.453450000000     0.610450000000     0.450000000000     0          
O        O      0.375000000000     0.625000000000     0.500000000000     0          
O        O      0.000000000000     0.662550000000     0.400000000000     0          
O        O      0.363800000000     0.500000000000     0.400000000000     0          
O        O      0.375000000000     0.875000000000     0.400000000000     0          
O        O      0.136200000000     0.500000000000     0.500000000000     0          
O        O      0.125000000000     0.625000000000     0.500000000000     0          
O        O      0.375000000000     0.625000000000     0.400000000000     0          
O        O      0.125000000000     0.875000000000     0.500000000000     0          
O        O      0.386200000000     0.750000000000     0.400000000000     0          
O        O      0.453450000000     0.785350000000     0.450000000000     0          
O        O      0.366250000000     0.811650000000     0.450000000000     0          
O        O      0.296550000000     0.860450000000     0.450000000000     0          
O        O      0.250000000000     0.912550000000     0.500000000000     0          
O        O      0.113800000000     0.750000000000     0.500000000000     0          
O        O      0.046550000000     0.714650000000     0.550000000000     0          
O        O      0.133750000000     0.688350000000     0.550000000000     0          
O        O      0.203450000000     0.639550000000     0.550000000000     0          
O        O      0.250000000000     0.587450000000     0.400000000000     0          
O        O      0.453450000000     0.714650000000     0.550000000000     0          
O        O      0.366250000000     0.688350000000     0.550000000000     0          
O        O      0.296550000000     0.639550000000     0.550000000000     0          
O        O      0.250000000000     0.587450000000     0.500000000000     0          
O        O      0.046550000000     0.785350000000     0.450000000000     0          
O        O      0.133750000000     0.811650000000     0.450000000000     0          
O        O      0.203450000000     0.860450000000     0.450000000000     0          
O        O      0.250000000000     0.912550000000     0.400000000000     0          
O        O      0.113800000000     0.750000000000     0.400000000000     0          
O        O      0.386200000000     0.750000000000     0.500000000000     0          
O        O      0.136200000000     0.500000000000     0.600000000000     0          
O        O      0.203450000000     0.535350000000     0.650000000000     0          
O        O      0.116250000000     0.561650000000     0.650000000000     0          
O        O      0.046550000000     0.610450000000     0.650000000000     0          
O        O      0.125000000000     0.625000000000     0.600000000000     0          
O        O      0.000000000000     0.662550000000     0.700000000000     0          
O        O      0.363800000000     0.500000000000     0.700000000000     0          
O        O      0.296550000000     0.964650000000     0.750000000000     0          
O        O      0.383750000000     0.938350000000     0.750000000000     0          
O        O      0.453450000000     0.889550000000     0.750000000000     0          
O        O      0.375000000000     0.875000000000     0.700000000000     0          
O        O      0.000000000000     0.837450000000     0.600000000000     0          
O        O      0.203450000000     0.964650000000     0.750000000000     0          
O        O      0.116250000000     0.938350000000     0.750000000000     0          
O        O      0.046550000000     0.889550000000     0.750000000000     0          
O        O      0.125000000000     0.875000000000     0.600000000000     0          
O        O      0.000000000000     0.837450000000     0.700000000000     0          
O        O      0.296550000000     0.535350000000     0.650000000000     0          
O        O      0.383750000000     0.561650000000     0.650000000000     0          
O        O      0.453450000000     0.610450000000     0.650000000000     0          
O        O      0.375000000000     0.625000000000     0.700000000000     0          
O        O      0.000000000000     0.662550000000     0.600000000000     0          
O        O      0.363800000000     0.500000000000     0.600000000000     0          
O        O      0.375000000000     0.875000000000     0.600000000000     0          
O        O      0.136200000000     0.500000000000     0.700000000000     0          
O        O      0.125000000000     0.625000000000     0.700000000000     0          
O        O      0.375000000000     0.625000000000     0.600000000000     0          
O        O      0.125000000000     0.875000000000     0.700000000000     0          
O        O      0.386200000000     0.750000000000     0.600000000000     0          
O        O      0.453450000000     0.785350000000     0.650000000000     0          
O        O      0.366250000000     0.811650000000     0.650000000000     0          
O        O      0.296550000000     0.860450000000     0.650000000000     0          
O        O      0.250000000000     0.912550000000     0.700000000000     0          
O        O      0.113800000000     0.750000000000     0.700000000000     0          
O        O      0.046550000000     0.714650000000     0.750000000000     0          
O        O      0.133750000000     0.688350000000     0.750000000000     0          
O        O      0.203450000000     0.639550000000     0.750000000000     0          
O        O      0.250000000000     0.587450000000     0.600000000000     0          
O        O      0.453450000000     0.714650000000     0.750000000000     0          
O        O      0.366250000000     0.688350000000     0.750000000000     0          
O        O      0.296550000000     0.639550000000     0.750000000000     0          
O        O      0.250000000000     0.587450000000     0.700000000000     0          
O        O      0.046550000000     0.785350000000     0.650000000000     0          
O        O      0.133750000000     0.811650000000     0.650000000000     0          
O        O      0.203450000000     0.860450000000     0.650000000000     0          
O        O      0.250000000000     0.912550000000     0.600000000000     0          
O        O      0.113800000000     0.750000000000     0.600000000000     0          
O        O      0.386200000000     0.750000000000     0.700000000000     0          
O        O      0.136200000000     0.500000000000     0.800000000000     0          
O        O      0.203450000000     0.535350000000     0.850000000000     0          
O        O      0.116250000000     0.561650000000     0.850000000000     0          
O        O      0.046550000000     0.610450000000     0.850000000000     0          
O        O      0.125000000000     0.625000000000     0.800000000000     0          
O        O      0.000000000000     0.662550000000     0.900000000000     0          
O        O      0.363800000000     0.500000000000     0.900000000000     0          
O        O      0.296550000000     0.964650000000     0.950000000000     0          
O        O      0.383750000000     0.938350000000     0.950000000000     0          
O        O      0.453450000000     0.889550000000     0.950000000000     0          
O        O      0.375000000000     0.875000000000     0.900000000000     0          
O        O      0.000000000000     0.837450000000     0.800000000000     0          
O        O      0.203450000000     0.964650000000     0.950000000000     0          
O        O      0.116250000000     0.938350000000     0.950000000000     0          
O        O      0.046550000000     0.889550000000     0.950000000000     0          
O        O      0.125000000000     0.875000000000     0.800000000000     0          
O        O      0.000000000000     0.837450000000     0.900000000000     0          
O        O      0.296550000000     0.535350000000     0.850000000000     0          
O        O      0.383750000000     0.561650000000     0.850000000000     0          
O        O      0.453450000000     0.610450000000     0.850000000000     0          
O        O      0.375000000000     0.625000000000     0.900000000000     0          
O        O      0.000000000000     0.662550000000     0.800000000000     0          
O        O      0.363800000000     0.500000000000     0.800000000000     0          
O        O      0.375000000000     0.875000000000     0.800000000000     0          
O        O      0.136200000000     0.500000000000     0.900000000000     0          
O        O      0.125000000000     0.625000000000     0.900000000000     0          
O        O      0.375000000000     0.625000000000     0.800000000000     0          
O        O      0.125000000000     0.875000000000     0.900000000000     0          
O        O      0.386200000000     0.750000000000     0.800000000000     0          
O        O      0.453450000000     0.785350000000     0.850000000000     0          
O        O      0.366250000000     0.811650000000     0.850000000000     0          
O        O      0.296550000000     0.860450000000     0.850000000000     0          
O        O      0.250000000000     0.912550000000     0.900000000000     0          
O        O      0.113800000000     0.750000000000     0.900000000000     0          
O        O      0.046550000000     0.714650000000     0.950000000000     0          
O        O      0.133750000000     0.688350000000     0.950000000000     0          
O        O      0.203450000000     0.639550000000     0.950000000000     0          
O        O      0.250000000000     0.587450000000     0.800000000000     0          
O        O      0.453450000000     0.714650000000     0.950000000000     0          
O        O      0.366250000000     0.688350000000     0.950000000000     0          
O        O      0.296550000000     0.639550000000     0.950000000000     0          
O        O      0.250000000000     0.587450000000     0.900000000000     0          
O        O      0.046550000000     0.785350000000     0.850000000000     0          
O        O      0.133750000000     0.811650000000     0.850000000000     0          
O        O      0.203450000000     0.860450000000     0.850000000000     0          
O        O      0.250000000000     0.912550000000     0.800000000000     0          
O        O      0.113800000000     0.750000000000     0.800000000000     0          
O        O      0.386200000000     0.750000000000     0.900000000000     0          
O        O      0.636200000000     0.000000000000     0.000000000000     0          
O        O      0.703450000000     0.035350000000     0.050000000000     0          
O        O      0.616250000000     0.061650000000     0.050000000000     0          
O        O      0.546550000000     0.110450000000     0.050000000000     0          
O        O      0.625000000000     0.125000000000     0.000000000000     0          
O        O      0.500000000000     0.162550000000     0.100000000000     0          
O        O      0.863800000000     0.000000000000     0.100000000000     0          
O        O      0.796550000000     0.464650000000     0.150000000000     0          
O        O      0.883750000000     0.438350000000     0.150000000000     0          
O        O      0.953450000000     0.389550000000     0.150000000000     0          
O        O      0.875000000000     0.375000000000     0.100000000000     0          
O        O      0.500000000000     0.337450000000     0.000000000000     0          
O        O      0.703450000000     0.464650000000     0.150000000000     0          
O        O      0.616250000000     0.438350000000     0.150000000000     0          
O        O      0.546550000000     0.389550000000     0.150000000000     0          
O        O      0.625000000000     0.375000000000     0.000000000000     0          
O        O      0.500000000000     0.337450000000     0.100000000000     0          
O        O      0.796550000000     0.035350000000     0.050000000000     0          
O        O      0.883750000000     0.061650000000     0.050000000000     0          
O        O      0.953450000000     0.110450000000     0.050000000000     0          
O        O      0.875000000000     0.125000000000     0.100000000000     0          
O        O      0.500000000000     0.162550000000     0.000000000000     0          
O        O      0.863800000000     0.000000000000     0.000000000000     0          
O        O      0.875000000000     0.375000000000     0.000000000000     0          
O        O      0.636200000000     0.000000000000     0.100000000000     0          
O        O      0.625000000000     0.125000000000     0.100000000000     0          
O        O      0.875000000000     0.125000000000     0.000000000000     0          
O        O      0.625000000000     0.375000000000     0.100000000000     0          
O        O      0.886200000000     0.250000000000     0.000000000000     0          
O        O      0.953450000000     0.285350000000     0.050000000000     0          
O        O      0.866250000000     0.311650000000     0.050000000000     0          
O        O      0.796550000000     0.360450000000     0.050000000000     0          
O        O      0.750000000000     0.412550000000     0.100000000000     0          
O        O      0.613800000000     0.250000000000     0.100000000000     0          
O        O      0.546550000000     0.214650000000     0.150000000000     0          
O        O      0.633750000000     0.188350000000     0.150000000000     0          
O        O      0.703450000000     0.139550000000     0.150000000000     0          
O        O      0.750000000000     0.087450000000     0.000000000000     0          
O        O      0.953450000000     0.214650000000     0.150000000000     0          
O        O      0.866250000000     0.188350000000     0.150000000000     0          
O        O      0.796550000000     0.139550000000     0.150000000000     0          
O        O      0.750000000000     0.087450000000     0.100000000000     0          
O        O      0.546550000000     0.285350000000     0.050000000000     0          
O        O      0.633750000000     0.311650000000     0.050000000000     0          
O        O      0.703450000000     0.360450000000     0.050000000000     0          
O        O      0.750000000000     0.412550000000     0.000000000000     0          
O        O      0.613800000000     0.250000000000     0.000000000000     0          
O        O      0.886200000000     0.250000000000     0.100000000000     0          
O        O      0.636200000000     0.000000000000     0.200000000000     0          
O        O      0.703450000000     0.035350000000     0.250000000000     0          
O        O      0.616250000000     0.061650000000     0.250000000000     0          
O        O      0.546550000000     0.110450000000     0.250000000000     0          
O        O      0.625000000000     0.125000000000     0.200000000000     0          
O        O      0.500000000000     0.162550000000     0.300000000000     0          
O        O      0.863800000000     0.000000000000     0.300000000000     0          
O        O      0.796550000000     0.464650000000     0.350000000000     0          
O        O      0.883750000000     0.438350000000     0.350000000000     0          
O        O      0.953450000000     0.389550000000     0.350000000000     0          
O        O      0.875000000000     0.375000000000     0.300000000000     0          
O        O      0.500000000000     0.337450000000     0.200000000000     0          
O        O      0.703450000000     0.464650000000     0.350000000000     0          
O        O      0.616250000000     0.438350000000     0.350000000000     0          
O        O      0.546550000000     0.389550000000     0.350000000000     0          
O        O      0.625000000000     0.375000000000     0.200000000000     0          
O        O      0.500000000000     0.337450000000     0.300000000000     0          
O        O      0.796550000000     0.035350000000     0.250000000000     0          
O        O      0.883750000000     0.061650000000     0.250000000000     0          
O        O      0.953450000000     0.110450000000     0.250000000000     0          
O        O      0.875000000000     0.125000000000     0.300000000000     0          
O        O      0.500000000000     0.162550000000     0.200000000000     0          
O        O      0.863800000000     0.000000000000     0.200000000000     0          
O        O      0.875000000000     0.375000000000     0.200000000000     0          
O        O      0.636200000000     0.000000000000     0.300000000000     0          
O        O      0.625000000000     0.125000000000     0.300000000000     0          
O        O      0.875000000000     0.125000000000     0.200000000000     0          
O        O      0.625000000000     0.375000000000     0.300000000000     0          
O        O      0.886200000000     0.250000000000     0.200000000000     0          
O        O      0.953450000000     0.285350000000     0.250000000000     0          
O        O      0.866250000000     0.311650000000     0.250000000000     0          
O        O      0.796550000000     0.360450000000     0.250000000000     0          
O        O      0.750000000000     0.412550000000     0.300000000000     0          
O        O      0.613800000000     0.250000000000     0.300000000000     0          
O        O      0.546550000000     0.214650000000     0.350000000000     0          
O        O      0.633750000000     0.188350000000     0.350000000000     0          
O        O      0.703450000000     0.139550000000     0.350000000000     0          
O        O      0.750000000000     0.087450000000     0.200000000000     0          
O        O      0.953450000000     0.214650000000     0.350000000000     0          
O        O      0.866250000000     0.188350000000     0.350000000000     0          
O        O      0.796550000000     0.139550000000     0.350000000000     0          
O        O      0.750000000000     0.087450000000     0.300000000000     0          
O        O      0.546550000000     0.285350000000     0.250000000000     0          
O        O      0.633750000000     0.311650000000     0.250000000000     0          
O        O      0.703450000000     0.360450000000     0.250000000000     0          
O        O      0.750000000000     0.412550000000     0.200000000000     0          
O        O      0.613800000000     0.250000000000     0.200000000000     0          
O        O      0.886200000000     0.250000000000     0.300000000000     0          
O        O      0.636200000000     0.000000000000     0.400000000000     0          
O        O      0.703450000000     0.035350000000     0.450000000000     0          
O        O      0.616250000000     0.061650000000     0.450000000000     0          
O        O      0.546550000000     0.110450000000     0.450000000000     0          
O        O      0.625000000000     0.125000000000     0.400000000000     0          
O        O      0.500000000000     0.162550000000     0.500000000000     0          
O        O      0.863800000000     0.000000000000     0.500000000000     0          
O        O      0.796550000000     0.464650000000     0.550000000000     0          
O        O      0.883750000000     0.438350000000     0.550000000000     0          
O        O      0.953450000000     0.389550000000     0.550000000000     0          
O        O      0.875000000000     0.375000000000     0.500000000000     0          
O        O      0.500000000000     0.337450000000     0.400000000000     0          
O        O      0.703450000000     0.464650000000     0.550000000000     0          
O        O      0.616250000000     0.438350000000     0.550000000000     0          
O        O      0.546550000000     0.389550000000     0.550000000000     0          
O        O      0.625000000000     0.375000000000     0.400000000000     0          
O        O      0.500000000000     0.337450000000     0.500000000000     0          
O        O      0.796550000000     0.035350000000     0.450000000000     0          
O        O      0.883750000000     0.061650000000     0.450000000000     0          
O        O      0.953450000000     0.110450000000     0.450000000000     0          
O        O      0.875000000000     0.125000000000     0.500000000000     0          
O        O      0.500000000000     0.162550000000     0.400000000000     0          
O        O      0.863800000000     0.000000000000     0.400000000000     0          
O        O      0.875000000000     0.375000000000     0.400000000000     0          
O        O      0.636200000000     0.000000000000     0.500000000000     0          
O        O      0.625000000000     0.125000000000     0.500000000000     0          
O        O      0.875000000000     0.125000000000     0.400000000000     0          
O        O      0.625000000000     0.375000000000     0.500000000000     0          
O        O      0.886200000000     0.250000000000     0.400000000000     0          
O        O      0.953450000000     0.285350000000     0.450000000000     0          
O        O      0.866250000000     0.311650000000     0.450000000000     0          
O        O      0.796550000000     0.360450000000     0.450000000000     0          
O        O      0.750000000000     0.412550000000     0.500000000000     0          
O        O      0.613800000000     0.250000000000     0.500000000000     0          
O        O      0.546550000000     0.214650000000     0.550000000000     0          
O        O      0.633750000000     0.188350000000     0.550000000000     0          
O        O      0.703450000000     0.139550000000     0.550000000000     0          
O        O      0.750000000000     0.087450000000     0.400000000000     0          
O        O      0.953450000000     0.214650000000     0.550000000000     0          
O        O      0.866250000000     0.188350000000     0.550000000000     0          
O        O      0.796550000000     0.139550000000     0.550000000000     0          
O        O      0.750000000000     0.087450000000     0.500000000000     0          
O        O      0.546550000000     0.285350000000     0.450000000000     0          
O        O      0.633750000000     0.311650000000     0.450000000000     0          
O        O      0.703450000000     0.360450000000     0.450000000000     0          
O        O      0.750000000000     0.412550000000     0.400000000000     0          
O        O      0.613800000000     0.250000000000     0.400000000000     0          
O        O      0.886200000000     0.250000000000     0.500000000000     0          
O        O      0.636200000000     0.000000000000     0.600000000000     0          
O        O      0.703450000000     0.035350000000     0.650000000000     0          
O        O      0.616250000000     0.061650000000     0.650000000000     0          
O        O      0.546550000000     0.110450000000     0.650000000000     0          
O        O      0.625000000000     0.125000000000     0.600000000000     0          
O        O      0.500000000000     0.162550000000     0.700000000000     0          
O        O      0.863800000000     0.000000000000     0.700000000000     0          
O        O      0.796550000000     0.464650000000     0.750000000000     0          
O        O      0.883750000000     0.438350000000     0.750000000000     0          
O        O      0.953450000000     0.389550000000     0.750000000000     0          
O        O      0.875000000000     0.375000000000     0.700000000000     0          
O        O      0.500000000000     0.337450000000     0.600000000000     0          
O        O      0.703450000000     0.464650000000     0.750000000000     0          
O        O      0.616250000000     0.438350000000     0.750000000000     0          
O        O      0.546550000000     0.389550000000     0.750000000000     0          
O        O      0.625000000000     0.375000000000     0.600000000000     0          
O        O      0.500000000000     0.337450000000     0.700000000000     0          
O        O      0.796550000000     0.035350000000     0.650000000000     0          
O        O      0.883750000000     0.061650000000     0.650000000000     0          
O        O      0.953450000000     0.110450000000     0.650000000000     0          
O        O      0.875000000000     0.125000000000     0.700000000000     0          
O        O      0.500000000000     0.162550000000     0.600000000000     0          
O        O      0.863800000000     0.000000000000     0.600000000000     0          
O        O      0.875000000000     0.375000000000     0.600000000000     0          
O        O      0.636200000000     0.000000000000     0.700000000000     0          
O        O      0.625000000000     0.125000000000     0.700000000000     0          
O        O      0.875000000000     0.125000000000     0.600000000000     0          
O        O      0.625000000000     0.375000000000     0.700000000000     0          
O        O      0.886200000000     0.250000000000     0.600000000000     0          
O        O      0.953450000000     0.285350000000     0.650000000000     0          
O        O      0.866250000000     0.311650000000     0.650000000000     0          
O        O      0.796550000000     0.360450000000     0.650000000000     0          
O        O      0.750000000000     0.412550000000     0.700000000000     0          
O        O      0.613800000000     0.250000000000     0.700000000000     0          
O        O      0.546550000000     0.214650000000     0.750000000000     0          
O        O      0.633750000000     0.188350000000     0.750000000000     0          
O        O      0.703450000000     0.139550000000     0.750000000000     0          
O        O      0.750000000000     0.087450000000     0.600000000000     0          
O        O      0.953450000000     0.214650000000     0.750000000000     0          
O        O      0.866250000000     0.188350000000     0.750000000000     0          
O        O      0.796550000000     0.139550000000     0.750000000000     0          
O        O      0.750000000000     0.087450000000     0.700000000000     0          
O        O      0.546550000000     0.285350000000     0.650000000000     0          
O        O      0.633750000000     0.311650000000     0.650000000000     0          
O        O      0.703450000000     0.360450000000     0.650000000000     0          
O        O      0.750000000000     0.412550000000     0.600000000000     0          
O        O      0.613800000000     0.250000000000     0.600000000000     0          
O        O      0.886200000000     0.250000000000     0.700000000000     0          
O        O      0.636200000000     0.000000000000     0.800000000000     0          
O        O      0.703450000000     0.035350000000     0.850000000000     0          
O        O      0.616250000000     0.061650000000     0.850000000000     0          
O        O      0.546550000000     0.110450000000     0.850000000000     0          
O        O      0.625000000000     0.125000000000     0.800000000000     0          
O        O      0.500000000000     0.162550000000     0.900000000000     0          
O        O      0.863800000000     0.000000000000     0.900000000000     0          
O        O      0.796550000000     0.464650000000     0.950000000000     0          
O        O      0.883750000000     0.438350000000     0.950000000000     0          
O        O      0.953450000000     0.389550000000     0.950000000000     0          
O        O      0.875000000000     0.375000000000     0.900000000000     0          
O        O      0.500000000000     0.337450000000     0.800000000000     0          
O        O      0.703450000000     0.464650000000     0.950000000000     0          
O        O      0.616250000000     0.438350000000     0.950000000000     0          
O        O      0.546550000000     0.389550000000     0.950000000000     0          
O        O      0.625000000000     0.375000000000     0.800000000000     0          
O        O      0.500000000000     0.337450000000     0.900000000000     0          
O        O      0.796550000000     0.035350000000     0.850000000000     0          
O        O      0.883750000000     0.061650000000     0.850000000000     0          
O        O      0.953450000000     0.110450000000     0.850000000000     0          
O        O      0.875000000000     0.125000000000     0.900000000000     0          
O        O      0.500000000000     0.162550000000     0.800000000000     0          
O        O      0.863800000000     0.000000000000     0.800000000000     0          
O        O      0.875000000000     0.375000000000     0.800000000000     0          
O        O      0.636200000000     0.000000000000     0.900000000000     0          
O        O      0.625000000000     0.125000000000     0.900000000000     0          
O        O      0.875000000000     0.125000000000     0.800000000000     0          
O        O      0.625000000000     0.375000000000     0.900000000000     0          
O        O      0.886200000000     0.250000000000     0.800000000000     0          
O        O      0.953450000000     0.285350000000     0.850000000000     0          
O        O      0.866250000000     0.311650000000     0.850000000000     0          
O        O      0.796550000000     0.360450000000     0.850000000000     0          
O        O      0.750000000000     0.412550000000     0.900000000000     0          
O        O      0.613800000000     0.250000000000     0.900000000000     0          
O        O      0.546550000000     0.214650000000     0.950000000000     0          
O        O      0.633750000000     0.188350000000     0.950000000000     0          
O        O      0.703450000000     0.139550000000     0.950000000000     0          
O        O      0.750000000000     0.087450000000     0.800000000000     0          
O        O      0.953450000000     0.214650000000     0.950000000000     0          
O        O      0.866250000000     0.188350000000     0.950000000000     0          
O        O      0.796550000000     0.139550000000     0.950000000000     0          
O        O      0.750000000000     0.087450000000     0.900000000000     0          
O        O      0.546550000000     0.285350000000     0.850000000000     0          
O        O      0.633750000000     0.311650000000     0.850000000000     0          
O        O      0.703450000000     0.360450000000     0.850000000000     0          
O        O      0.750000000000     0.412550000000     0.800000000000     0          
O        O      0.613800000000     0.250000000000     0.800000000000     0          
O        O      0.886200000000     0.250000000000     0.900000000000     0          
O        O      0.636200000000     0.500000000000     0.000000000000     0          
O        O      0.703450000000     0.535350000000     0.050000000000     0          
O        O      0.616250000000     0.561650000000     0.050000000000     0          
O        O      0.546550000000     0.610450000000     0.050000000000     0          
O        O      0.625000000000     0.625000000000     0.000000000000     0          
O        O      0.500000000000     0.662550000000     0.100000000000     0          
O        O      0.863800000000     0.500000000000     0.100000000000     0          
O        O      0.796550000000     0.964650000000     0.150000000000     0          
O        O      0.883750000000     0.938350000000     0.150000000000     0          
O        O      0.953450000000     0.889550000000     0.150000000000     0          
O        O      0.875000000000     0.875000000000     0.100000000000     0          
O        O      0.500000000000     0.837450000000     0.000000000000     0          
O        O      0.703450000000     0.964650000000     0.150000000000     0          
O        O      0.616250000000     0.938350000000     0.150000000000     0          
O        O      0.546550000000     0.889550000000     0.150000000000     0          
O        O      0.625000000000     0.875000000000     0.000000000000     0          
O        O      0.500000000000     0.837450000000     0.100000000000     0          
O        O      0.796550000000     0.535350000000     0.050000000000     0          
O        O      0.883750000000     0.561650000000     0.050000000000     0          
O        O      0.953450000000     0.610450000000     0.050000000000     0          
O        O      0.875000000000     0.625000000000     0.100000000000     0          
O        O      0.500000000000     0.662550000000     0.000000000000     0          
O        O      0.863800000000     0.500000000000     0.000000000000     0          
O        O      0.875000000000     0.875000000000     0.000000000000     0          
O        O      0.636200000000     0.500000000000     0.100000000000     0          
O        O      0.625000000000     0.625000000000     0.100000000000     0          
O        O      0.875000000000     0.625000000000     0.000000000000     0          
O        O      0.625000000000     0.875000000000     0.100000000000     0          
O        O      0.886200000000     0.750000000000     0.000000000000     0          
O        O      0.953450000000     0.785350000000     0.050000000000     0          
O        O      0.866250000000     0.811650000000     0.050000000000     0          
O        O      0.796550000000     0.860450000000     0.050000000000     0          
O        O      0.750000000000     0.912550000000     0.100000000000     0          
O        O      0.613800000000     0.750000000000     0.100000000000     0          
O        O      0.546550000000     0.714650000000     0.150000000000     0          
O        O      0.633750000000     0.688350000000     0.150000000000     0          
O        O      0.703450000000     0.639550000000     0.150000000000     0          
O        O      0.750000000000     0.587450000000     0.000000000000     0          
O        O      0.953450000000     0.714650000000     0.150000000000     0          
O        O      0.866250000000     0.688350000000     0.150000000000     0          
O        O      0.796550000000     0.639550000000     0.150000000000     0          
O        O      0.750000000000     0.587450000000     0.100000000000     0          
O        O      0.546550000000     0.785350000000     0.050000000000     0          
O        O      0.633750000000     0.811650000000     0.050000000000     0          
O        O      0.703450000000     0.860450000000     0.050000000000     0          
O        O      0.750000000000     0.912550000000     0.000000000000     0          
O        O      0.613800000000     0.750000000000     0.000000000000     0          
O        O      0.886200000000     0.750000000000     0.100000000000     0          
O        O      0.636200000000     0.500000000000     0.200000000000     0          
O        O      0.703450000000     0.535350000000     0.250000000000     0          
O        O      0.616250000000     0.561650000000     0.250000000000     0          
O        O      0.546550000000     0.610450000000     0.250000000000     0          
O        O      0.625000000000     0.625000000000     0.200000000000     0          
O        O      0.500000000000     0.662550000000     0.300000000000     0          
O        O      0.863800000000     0.500000000000     0.300000000000     0          
O        O      0.796550000000     0.964650000000     0.350000000000     0          
O        O      0.883750000000     0.938350000000     0.350000000000     0          
O        O      0.953450000000     0.889550000000     0.350000000000     0          
O        O      0.875000000000     0.875000000000     0.300000000000     0          
O        O      0.500000000000     0.837450000000     0.200000000000     0          
O        O      0.703450000000     0.964650000000     0.350000000000     0          
O        O      0.616250000000     0.938350000000     0.350000000000     0          
O        O      0.546550000000     0.889550000000     0.350000000000     0          
O        O      0.625000000000     0.875000000000     0.200000000000     0          
O        O      0.500000000000     0.837450000000     0.300000000000     0          
O        O      0.796550000000     0.535350000000     0.250000000000     0          
O        O      0.883750000000     0.561650000000     0.250000000000     0          
O        O      0.953450000000     0.610450000000     0.250000000000     0          
O        O      0.875000000000     0.625000000000     0.300000000000     0          
O        O      0.500000000000     0.662550000000     0.200000000000     0          
O        O      0.863800000000     0.500000000000     0.200000000000     0          
O        O      0.875000000000     0.875000000000     0.200000000000     0          
O        O      0.636200000000     0.500000000000     0.300000000000     0          
O        O      0.625000000000     0.625000000000     0.300000000000     0          
O        O      0.875000000000     0.625000000000     0.200000000000     0          
O        O      0.625000000000     0.875000000000     0.300000000000     0          
O        O      0.886200000000     0.750000000000     0.200000000000     0          
O        O      0.953450000000     0.785350000000     0.250000000000     0          
O        O      0.866250000000     0.811650000000     0.250000000000     0          
O        O      0.796550000000     0.860450000000     0.250000000000     0          
O        O      0.750000000000     0.912550000000     0.300000000000     0          
O        O      0.613800000000     0.750000000000     0.300000000000     0          
O        O      0.546550000000     0.714650000000     0.350000000000     0          
O        O      0.633750000000     0.688350000000     0.350000000000     0          
O        O      0.703450000000     0.639550000000     0.350000000000     0          
O        O      0.750000000000     0.587450000000     0.200000000000     0          
O        O      0.953450000000     0.714650000000     0.350000000000     0          
O        O      0.866250000000     0.688350000000     0.350000000000     0          
O        O      0.796550000000     0.639550000000     0.350000000000     0          
O        O      0.750000000000     0.587450000000     0.300000000000     0          
O        O      0.546550000000     0.785350000000     0.250000000000     0          
O        O      0.633750000000     0.811650000000     0.250000000000     0          
O        O      0.703450000000     0.860450000000     0.250000000000     0          
O        O      0.750000000000     0.912550000000     0.200000000000     0          
O        O      0.613800000000     0.750000000000     0.200000000000     0          
O        O      0.886200000000     0.750000000000     0.300000000000     0          
O        O      0.636200000000     0.500000000000     0.400000000000     0          
O        O      0.703450000000     0.535350000000     0.450000000000     0          
O        O      0.616250000000     0.561650000000     0.450000000000     0          
O        O      0.546550000000     0.610450000000     0.450000000000     0          
O        O      0.625000000000     0.625000000000     0.400000000000     0          
O        O      0.500000000000     0.662550000000     0.500000000000     0          
O        O      0.863800000000     0.500000000000     0.500000000000     0          
O        O      0.796550000000     0.964650000000     0.550000000000     0          
O        O      0.883750000000     0.938350000000     0.550000000000     0          
O        O      0.953450000000     0.889550000000     0.550000000000     0          
O        O      0.875000000000     0.875000000000     0.500000000000     0          
O        O      0.500000000000     0.837450000000     0.400000000000     0          
O        O      0.703450000000     0.964650000000     0.550000000000     0          
O        O      0.616250000000     0.938350000000     0.550000000000     0          
O        O      0.546550000000     0.889550000000     0.550000000000     0          
O        O      0.625000000000     0.875000000000     0.400000000000     0          
O        O      0.500000000000     0.837450000000     0.500000000000     0          
O        O      0.796550000000     0.535350000000     0.450000000000     0          
O        O      0.883750000000     0.561650000000     0.450000000000     0          
O        O      0.953450000000     0.610450000000     0.450000000000     0          
O        O      0.875000000000     0.625000000000     0.500000000000     0          
O        O      0.500000000000     0.662550000000     0.400000000000     0          
O        O      0.863800000000     0.500000000000     0.400000000000     0          
O        O      0.875000000000     0.875000000000     0.400000000000     0          
O        O      0.636200000000     0.500000000000     0.500000000000     0          
O        O      0.625000000000     0.625000000000     0.500000000000     0          
O        O      0.875000000000     0.625000000000     0.400000000000     0          
O        O      0.625000000000     0.875000000000     0.500000000000     0          
O        O      0.886200000000     0.750000000000     0.400000000000     0          
O        O      0.953450000000     0.785350000000     0.450000000000     0          
O        O      0.866250000000     0.811650000000     0.450000000000     0          
O        O      0.796550000000     0.860450000000     0.450000000000     0          
O        O      0.750000000000     0.912550000000     0.500000000000     0          
O        O      0.613800000000     0.750000000000     0.500000000000     0          
O        O      0.546550000000     0.714650000000     0.550000000000     0          
O        O      0.633750000000     0.688350000000     0.550000000000     0          
O        O      0.703450000000     0.639550000000     0.550000000000     0          
O        O      0.750000000000     0.587450000000     0.400000000000     0          
O        O      0.953450000000     0.714650000000     0.550000000000     0          
O        O      0.866250000000     0.688350000000     0.550000000000     0          
O        O      0.796550000000     0.639550000000     0.550000000000     0          
O        O      0.750000000000     0.587450000000     0.500000000000     0          
O        O      0.546550000000     0.785350000000     0.450000000000     0          
O        O      0.633750000000     0.811650000000     0.450000000000     0          
O        O      0.703450000000     0.860450000000     0.450000000000     0          
O        O      0.750000000000     0.912550000000     0.400000000000     0          
O        O      0.613800000000     0.750000000000     0.400000000000     0          
O        O      0.886200000000     0.750000000000     0.500000000000     0          
O        O      0.636200000000     0.500000000000     0.600000000000     0          
O        O      0.703450000000     0.535350000000     0.650000000000     0          
O        O      0.616250000000     0.561650000000     0.650000000000     0          
O        O      0.546550000000     0.610450000000     0.650000000000     0          
O        O      0.625000000000     0.625000000000     0.600000000000     0          
O        O      0.500000000000     0.662550000000     0.700000000000     0          
O        O      0.863800000000     0.500000000000     0.700000000000     0          
O        O      0.796550000000     0.964650000000     0.750000000000     0          
O        O      0.883750000000     0.938350000000     0.750000000000     0          
O        O      0.953450000000     0.889550000000     0.750000000000     0          
O        O      0.875000000000     0.875000000000     0.700000000000     0          
O        O      0.500000000000     0.837450000000     0.600000000000     0          
O        O      0.703450000000     0.964650000000     0.750000000000     0          
O        O      0.616250000000     0.938350000000     0.750000000000     0          
O        O      0.546550000000     0.889550000000     0.750000000000     0          
O        O      0.625000000000     0.875000000000     0.600000000000     0          
O        O      0.500000000000     0.837450000000     0.700000000000     0          
O        O      0.796550000000     0.535350000000     0.650000000000     0          
O        O      0.883750000000     0.561650000000     0.650000000000     0          
O        O      0.953450000000     0.610450000000     0.650000000000     0          
O        O      0.875000000000     0.625000000000     0.700000000000     0          
O        O      0.500000000000     0.662550000000     0.600000000000     0          
O        O      0.863800000000     0.500000000000     0.600000000000     0          
O        O      0.875000000000     0.875000000000     0.600000000000     0          
O        O      0.636200000000     0.500000000000     0.700000000000     0          
O        O      0.625000000000     0.625000000000     0.700000000000     0          
O        O      0.875000000000     0.625000000000     0.600000000000     0          
O        O      0.625000000000     0.875000000000     0.700000000000     0          
O        O      0.886200000000     0.750000000000     0.600000000000     0          
O        O      0.953450000000     0.785350000000     0.650000000000     0          
O        O      0.866250000000     0.811650000000     0.650000000000     0          
O        O      0.796550000000     0.860450000000     0.650000000000     0          
O        O      0.750000000000     0.912550000000     0.700000000000     0          
O        O      0.613800000000     0.750000000000     0.700000000000     0          
O        O      0.546550000000     0.714650000000     0.750000000000     0          
O        O      0.633750000000     0.688350000000     0.750000000000     0          
O        O      0.703450000000     0.639550000000     0.750000000000     0          
O        O      0.750000000000     0.587450000000     0.600000000000     0          
O        O      0.953450000000     0.714650000000     0.750000000000     0          
O        O      0.866250000000     0.688350000000     0.750000000000     0          
O        O      0.796550000000     0.639550000000     0.750000000000     0          
O        O      0.750000000000     0.587450000000     0.700000000000     0          
O        O      0.546550000000     0.785350000000     0.650000000000     0          
O        O      0.633750000000     0.811650000000     0.650000000000     0          
O        O      0.703450000000     0.860450000000     0.650000000000     0          
O        O      0.750000000000     0.912550000000     0.600000000000     0          
O        O      0.613800000000     0.750000000000     0.600000000000     0          
O        O      0.886200000000     0.750000000000     0.700000000000     0          
O        O      0.636200000000     0.500000000000     0.800000000000     0          
O        O      0.703450000000     0.535350000000     0.850000000000     0          
O        O      0.616250000000     0.561650000000     0.850000000000     0          
O        O      0.546550000000     0.610450000000     0.850000000000     0          
O        O      0.625000000000     0.625000000000     0.800000000000     0          
O        O      0.500000000000     0.662550000000     0.900000000000     0          
O        O      0.863800000000     0.500000000000     0.900000000000     0          
O        O      0.796550000000     0.964650000000     0.950000000000     0          
O        O      0.883750000000     0.938350000000     0.950000000000     0          
O        O      0.953450000000     0.889550000000     0.950000000000     0          
O        O      0.875000000000     0.875000000000     0.900000000000     0          
O        O      0.500000000000     0.837450000000     0.800000000000     0          
O        O      0.703450000000     0.964650000000     0.950000000000     0          
O        O      0.616250000000     0.938350000000     0.950000000000     0          
O        O      0.546550000000     0.889550000000     0.950000000000     0          
O        O      0.625000000000     0.875000000000     0.800000000000     0          
O        O      0.500000000000     0.837450000000     0.900000000000     0          
O        O      0.796550000000     0.535350000000     0.850000000000     0          
O        O      0.883750000000     0.561650000000     0.850000000000     0          
O        O      0.953450000000     0.610450000000     0.850000000000     0          
O        O      0.875000000000     0.625000000000     0.900000000000     0          
O        O      0.500000000000     0.662550000000     0.800000000000     0          
O        O      0.863800000000     0.500000000000     0.800000000000     0          
O        O      0.875000000000     0.875000000000     0.800000000000     0          
O        O      0.636200000000     0.500000000000     0.900000000000     0          
O        O      0.625000000000     0.625000000000     0.900000000000     0          
O        O      0.875000000000     0.625000000000     0.800000000000     0          
O        O      0.625000000000     0.875000000000     0.900000000000     0          
O        O      0.886200000000     0.750000000000     0.800000000000     0          
O        O      0.953450000000     0.785350000000     0.850000000000     0          
O        O      0.866250000000     0.811650000000     0.850000000000     0          
O        O      0.796550000000     0.860450000000     0.850000000000     0          
O        O      0.750000000000     0.912550000000     0.900000000000     0          
O        O      0.613800000000     0.750000000000     0.900000000000     0          
O        O      0.546550000000     0.714650000000     0.950000000000     0          
O        O      0.633750000000     0.688350000000     0.950000000000     0          
O        O      0.703450000000     0.639550000000     0.950000000000     0          
O        O      0.750000000000     0.587450000000     0.800000000000     0          
O        O      0.953450000000     0.714650000000     0.950000000000     0          
O        O      0.866250000000     0.688350000000     0.950000000000     0          
O        O      0.796550000000     0.639550000000     0.950000000000     0          
O        O      0.750000000000     0.587450000000     0.900000000000     0          
O        O      0.546550000000     0.785350000000     0.850000000000     0          
O        O      0.633750000000     0.811650000000     0.850000000000     0          
O        O      0.703450000000     0.860450000000     0.850000000000     0          
O        O      0.750000000000     0.912550000000     0.800000000000     0          
O        O      0.613800000000     0.750000000000     0.800000000000     0          
O        O      0.886200000000     0.750000000000     0.900000000000     0          


