data_zeolite

_audit_creation_method RASPA-1.0
_audit_creation_date 2021-6-6
_audit_author_name ''

_cell_length_a    40.54
_cell_length_b    40.54
_cell_length_c    26.918
_cell_angle_alpha 90
_cell_angle_beta  90
_cell_angle_gamma 90
_cell_volume      44239.5

_symmetry_cell_setting          tetragonal
_symmetry_space_group_name_Hall 'P 1'
_symmetry_space_group_name_H-M  'P 1'
_symmetry_Int_Tables_number     1

_symmetry_equiv_pos_as_xyz 'x,y,z'

loop_
_atom_site_label
_atom_site_type_symbol
_atom_site_fract_x
_atom_site_fract_y
_atom_site_fract_z
_atom_site_charge
O        O      0.047500000000     0.061000000000     0.046750000000     0          
O        O      0.048800000000     0.125800000000     0.048100000000     0          
O        O      0.044400000000     0.092800000000     0.131700000000     0          
O        O      0.099700000000     0.092000000000     0.080750000000     0          
O        O      0.060350000000     0.100100000000     0.225700000000     0          
O        O      0.049150000000     0.152200000000     0.170250000000     0          
O        O      0.000000000000     0.113350000000     0.195950000000     0          
O        O      0.150050000000     0.060950000000     0.040600000000     0          
O        O      0.157400000000     0.092600000000     0.125000000000     0          
O        O      0.148800000000     0.125850000000     0.042300000000     0          
O        O      0.147600000000     0.000000000000     0.007250000000     0          
O        O      0.189300000000     0.042350000000     0.468100000000     0          
O        O      0.000000000000     0.190900000000     0.195600000000     0          
O        O      0.040900000000     0.209100000000     0.125000000000     0          
O        O      0.000000000000     0.043800000000     0.485500000000     0          
T        Si     0.060150000000     0.092900000000     0.076800000000     0          
T        Si     0.038400000000     0.114600000000     0.180900000000     0          
T        Si     0.138950000000     0.092850000000     0.071950000000     0          
T        Si     0.153150000000     0.038000000000     0.492000000000     0          
T        Si     0.037800000000     0.189950000000     0.177200000000     0          
T        Si     0.038100000000     0.038100000000     0.000000000000     0          
T        Si     0.096500000000     0.096500000000     0.250000000000     0          
O        O      0.061000000000     0.452500000000     0.453250000000     0          
O        O      0.125800000000     0.451200000000     0.451900000000     0          
O        O      0.092800000000     0.455600000000     0.368300000000     0          
O        O      0.092000000000     0.400300000000     0.419250000000     0          
O        O      0.100100000000     0.439650000000     0.274300000000     0          
O        O      0.152200000000     0.450850000000     0.329750000000     0          
O        O      0.113350000000     0.000000000000     0.304050000000     0          
O        O      0.060950000000     0.349950000000     0.459400000000     0          
O        O      0.092600000000     0.342600000000     0.375000000000     0          
O        O      0.125850000000     0.351200000000     0.457700000000     0          
O        O      0.000000000000     0.352400000000     0.492750000000     0          
O        O      0.042350000000     0.310700000000     0.031900000000     0          
O        O      0.190900000000     0.000000000000     0.304400000000     0          
O        O      0.209100000000     0.459100000000     0.375000000000     0          
O        O      0.043800000000     0.000000000000     0.014500000000     0          
T        Si     0.092900000000     0.439850000000     0.423200000000     0          
T        Si     0.114600000000     0.461600000000     0.319100000000     0          
T        Si     0.092850000000     0.361050000000     0.428050000000     0          
T        Si     0.038000000000     0.346850000000     0.008000000000     0          
T        Si     0.189950000000     0.462200000000     0.322800000000     0          
T        Si     0.038100000000     0.461900000000     0.000000000000     0          
T        Si     0.096500000000     0.403500000000     0.250000000000     0          
O        O      0.452500000000     0.439000000000     0.046750000000     0          
O        O      0.451200000000     0.374200000000     0.048100000000     0          
O        O      0.455600000000     0.407200000000     0.131700000000     0          
O        O      0.400300000000     0.408000000000     0.080750000000     0          
O        O      0.439650000000     0.399900000000     0.225700000000     0          
O        O      0.450850000000     0.347800000000     0.170250000000     0          
O        O      0.000000000000     0.386650000000     0.195950000000     0          
O        O      0.349950000000     0.439050000000     0.040600000000     0          
O        O      0.342600000000     0.407400000000     0.125000000000     0          
O        O      0.351200000000     0.374150000000     0.042300000000     0          
O        O      0.352400000000     0.000000000000     0.007250000000     0          
O        O      0.310700000000     0.457650000000     0.468100000000     0          
O        O      0.000000000000     0.309100000000     0.195600000000     0          
O        O      0.459100000000     0.290900000000     0.125000000000     0          
O        O      0.000000000000     0.456200000000     0.485500000000     0          
T        Si     0.439850000000     0.407100000000     0.076800000000     0          
T        Si     0.461600000000     0.385400000000     0.180900000000     0          
T        Si     0.361050000000     0.407150000000     0.071950000000     0          
T        Si     0.346850000000     0.462000000000     0.492000000000     0          
T        Si     0.462200000000     0.310050000000     0.177200000000     0          
T        Si     0.461900000000     0.461900000000     0.000000000000     0          
T        Si     0.403500000000     0.403500000000     0.250000000000     0          
O        O      0.439000000000     0.047500000000     0.453250000000     0          
O        O      0.374200000000     0.048800000000     0.451900000000     0          
O        O      0.407200000000     0.044400000000     0.368300000000     0          
O        O      0.408000000000     0.099700000000     0.419250000000     0          
O        O      0.399900000000     0.060350000000     0.274300000000     0          
O        O      0.347800000000     0.049150000000     0.329750000000     0          
O        O      0.386650000000     0.000000000000     0.304050000000     0          
O        O      0.439050000000     0.150050000000     0.459400000000     0          
O        O      0.407400000000     0.157400000000     0.375000000000     0          
O        O      0.374150000000     0.148800000000     0.457700000000     0          
O        O      0.000000000000     0.147600000000     0.492750000000     0          
O        O      0.457650000000     0.189300000000     0.031900000000     0          
O        O      0.309100000000     0.000000000000     0.304400000000     0          
O        O      0.290900000000     0.040900000000     0.375000000000     0          
O        O      0.456200000000     0.000000000000     0.014500000000     0          
T        Si     0.407100000000     0.060150000000     0.423200000000     0          
T        Si     0.385400000000     0.038400000000     0.319100000000     0          
T        Si     0.407150000000     0.138950000000     0.428050000000     0          
T        Si     0.462000000000     0.153150000000     0.008000000000     0          
T        Si     0.310050000000     0.037800000000     0.322800000000     0          
T        Si     0.461900000000     0.038100000000     0.000000000000     0          
T        Si     0.403500000000     0.096500000000     0.250000000000     0          
O        O      0.452500000000     0.061000000000     0.046750000000     0          
O        O      0.451200000000     0.125800000000     0.048100000000     0          
O        O      0.455600000000     0.092800000000     0.131700000000     0          
O        O      0.400300000000     0.092000000000     0.080750000000     0          
O        O      0.439650000000     0.100100000000     0.225700000000     0          
O        O      0.450850000000     0.152200000000     0.170250000000     0          
O        O      0.349950000000     0.060950000000     0.040600000000     0          
O        O      0.342600000000     0.092600000000     0.125000000000     0          
O        O      0.351200000000     0.125850000000     0.042300000000     0          
O        O      0.310700000000     0.042350000000     0.468100000000     0          
O        O      0.459100000000     0.209100000000     0.125000000000     0          
T        Si     0.439850000000     0.092900000000     0.076800000000     0          
T        Si     0.461600000000     0.114600000000     0.180900000000     0          
T        Si     0.361050000000     0.092850000000     0.071950000000     0          
T        Si     0.346850000000     0.038000000000     0.492000000000     0          
T        Si     0.462200000000     0.189950000000     0.177200000000     0          
O        O      0.061000000000     0.047500000000     0.453250000000     0          
O        O      0.125800000000     0.048800000000     0.451900000000     0          
O        O      0.092800000000     0.044400000000     0.368300000000     0          
O        O      0.092000000000     0.099700000000     0.419250000000     0          
O        O      0.100100000000     0.060350000000     0.274300000000     0          
O        O      0.152200000000     0.049150000000     0.329750000000     0          
O        O      0.060950000000     0.150050000000     0.459400000000     0          
O        O      0.092600000000     0.157400000000     0.375000000000     0          
O        O      0.125850000000     0.148800000000     0.457700000000     0          
O        O      0.042350000000     0.189300000000     0.031900000000     0          
O        O      0.209100000000     0.040900000000     0.375000000000     0          
T        Si     0.092900000000     0.060150000000     0.423200000000     0          
T        Si     0.114600000000     0.038400000000     0.319100000000     0          
T        Si     0.092850000000     0.138950000000     0.428050000000     0          
T        Si     0.038000000000     0.153150000000     0.008000000000     0          
T        Si     0.189950000000     0.037800000000     0.322800000000     0          
O        O      0.047500000000     0.439000000000     0.046750000000     0          
O        O      0.048800000000     0.374200000000     0.048100000000     0          
O        O      0.044400000000     0.407200000000     0.131700000000     0          
O        O      0.099700000000     0.408000000000     0.080750000000     0          
O        O      0.060350000000     0.399900000000     0.225700000000     0          
O        O      0.049150000000     0.347800000000     0.170250000000     0          
O        O      0.150050000000     0.439050000000     0.040600000000     0          
O        O      0.157400000000     0.407400000000     0.125000000000     0          
O        O      0.148800000000     0.374150000000     0.042300000000     0          
O        O      0.189300000000     0.457650000000     0.468100000000     0          
O        O      0.040900000000     0.290900000000     0.125000000000     0          
T        Si     0.060150000000     0.407100000000     0.076800000000     0          
T        Si     0.038400000000     0.385400000000     0.180900000000     0          
T        Si     0.138950000000     0.407150000000     0.071950000000     0          
T        Si     0.153150000000     0.462000000000     0.492000000000     0          
T        Si     0.037800000000     0.310050000000     0.177200000000     0          
O        O      0.439000000000     0.452500000000     0.453250000000     0          
O        O      0.374200000000     0.451200000000     0.451900000000     0          
O        O      0.407200000000     0.455600000000     0.368300000000     0          
O        O      0.408000000000     0.400300000000     0.419250000000     0          
O        O      0.399900000000     0.439650000000     0.274300000000     0          
O        O      0.347800000000     0.450850000000     0.329750000000     0          
O        O      0.439050000000     0.349950000000     0.459400000000     0          
O        O      0.407400000000     0.342600000000     0.375000000000     0          
O        O      0.374150000000     0.351200000000     0.457700000000     0          
O        O      0.457650000000     0.310700000000     0.031900000000     0          
O        O      0.290900000000     0.459100000000     0.375000000000     0          
T        Si     0.407100000000     0.439850000000     0.423200000000     0          
T        Si     0.385400000000     0.461600000000     0.319100000000     0          
T        Si     0.407150000000     0.361050000000     0.428050000000     0          
T        Si     0.462000000000     0.346850000000     0.008000000000     0          
T        Si     0.310050000000     0.462200000000     0.322800000000     0          
O        O      0.297500000000     0.311000000000     0.296750000000     0          
O        O      0.298800000000     0.375800000000     0.298100000000     0          
O        O      0.294400000000     0.342800000000     0.381700000000     0          
O        O      0.349700000000     0.342000000000     0.330750000000     0          
O        O      0.310350000000     0.350100000000     0.475700000000     0          
O        O      0.299150000000     0.402200000000     0.420250000000     0          
O        O      0.250000000000     0.363350000000     0.445950000000     0          
O        O      0.400050000000     0.310950000000     0.290600000000     0          
O        O      0.398800000000     0.375850000000     0.292300000000     0          
O        O      0.397600000000     0.250000000000     0.257250000000     0          
O        O      0.439300000000     0.292350000000     0.218100000000     0          
O        O      0.250000000000     0.440900000000     0.445600000000     0          
O        O      0.250000000000     0.293800000000     0.235500000000     0          
T        Si     0.310150000000     0.342900000000     0.326800000000     0          
T        Si     0.288400000000     0.364600000000     0.430900000000     0          
T        Si     0.388950000000     0.342850000000     0.321950000000     0          
T        Si     0.403150000000     0.288000000000     0.242000000000     0          
T        Si     0.287800000000     0.439950000000     0.427200000000     0          
T        Si     0.288100000000     0.288100000000     0.250000000000     0          
T        Si     0.346500000000     0.346500000000     0.000000000000     0          
O        O      0.311000000000     0.202500000000     0.203250000000     0          
O        O      0.375800000000     0.201200000000     0.201900000000     0          
O        O      0.342800000000     0.205600000000     0.118300000000     0          
O        O      0.342000000000     0.150300000000     0.169250000000     0          
O        O      0.350100000000     0.189650000000     0.024300000000     0          
O        O      0.402200000000     0.200850000000     0.079750000000     0          
O        O      0.363350000000     0.250000000000     0.054050000000     0          
O        O      0.310950000000     0.099950000000     0.209400000000     0          
O        O      0.375850000000     0.101200000000     0.207700000000     0          
O        O      0.250000000000     0.102400000000     0.242750000000     0          
O        O      0.292350000000     0.060700000000     0.281900000000     0          
O        O      0.440900000000     0.250000000000     0.054400000000     0          
O        O      0.293800000000     0.250000000000     0.264500000000     0          
T        Si     0.342900000000     0.189850000000     0.173200000000     0          
T        Si     0.364600000000     0.211600000000     0.069100000000     0          
T        Si     0.342850000000     0.111050000000     0.178050000000     0          
T        Si     0.288000000000     0.096850000000     0.258000000000     0          
T        Si     0.439950000000     0.212200000000     0.072800000000     0          
T        Si     0.288100000000     0.211900000000     0.250000000000     0          
T        Si     0.346500000000     0.153500000000     0.000000000000     0          
O        O      0.202500000000     0.189000000000     0.296750000000     0          
O        O      0.201200000000     0.124200000000     0.298100000000     0          
O        O      0.205600000000     0.157200000000     0.381700000000     0          
O        O      0.150300000000     0.158000000000     0.330750000000     0          
O        O      0.189650000000     0.149900000000     0.475700000000     0          
O        O      0.200850000000     0.097800000000     0.420250000000     0          
O        O      0.250000000000     0.136650000000     0.445950000000     0          
O        O      0.099950000000     0.189050000000     0.290600000000     0          
O        O      0.101200000000     0.124150000000     0.292300000000     0          
O        O      0.102400000000     0.250000000000     0.257250000000     0          
O        O      0.060700000000     0.207650000000     0.218100000000     0          
O        O      0.250000000000     0.059100000000     0.445600000000     0          
O        O      0.250000000000     0.206200000000     0.235500000000     0          
T        Si     0.189850000000     0.157100000000     0.326800000000     0          
T        Si     0.211600000000     0.135400000000     0.430900000000     0          
T        Si     0.111050000000     0.157150000000     0.321950000000     0          
T        Si     0.096850000000     0.212000000000     0.242000000000     0          
T        Si     0.212200000000     0.060050000000     0.427200000000     0          
T        Si     0.211900000000     0.211900000000     0.250000000000     0          
T        Si     0.153500000000     0.153500000000     0.000000000000     0          
O        O      0.189000000000     0.297500000000     0.203250000000     0          
O        O      0.124200000000     0.298800000000     0.201900000000     0          
O        O      0.157200000000     0.294400000000     0.118300000000     0          
O        O      0.158000000000     0.349700000000     0.169250000000     0          
O        O      0.149900000000     0.310350000000     0.024300000000     0          
O        O      0.097800000000     0.299150000000     0.079750000000     0          
O        O      0.136650000000     0.250000000000     0.054050000000     0          
O        O      0.189050000000     0.400050000000     0.209400000000     0          
O        O      0.124150000000     0.398800000000     0.207700000000     0          
O        O      0.250000000000     0.397600000000     0.242750000000     0          
O        O      0.207650000000     0.439300000000     0.281900000000     0          
O        O      0.059100000000     0.250000000000     0.054400000000     0          
O        O      0.206200000000     0.250000000000     0.264500000000     0          
T        Si     0.157100000000     0.310150000000     0.173200000000     0          
T        Si     0.135400000000     0.288400000000     0.069100000000     0          
T        Si     0.157150000000     0.388950000000     0.178050000000     0          
T        Si     0.212000000000     0.403150000000     0.258000000000     0          
T        Si     0.060050000000     0.287800000000     0.072800000000     0          
T        Si     0.211900000000     0.288100000000     0.250000000000     0          
T        Si     0.153500000000     0.346500000000     0.000000000000     0          
O        O      0.202500000000     0.311000000000     0.296750000000     0          
O        O      0.201200000000     0.375800000000     0.298100000000     0          
O        O      0.205600000000     0.342800000000     0.381700000000     0          
O        O      0.150300000000     0.342000000000     0.330750000000     0          
O        O      0.189650000000     0.350100000000     0.475700000000     0          
O        O      0.200850000000     0.402200000000     0.420250000000     0          
O        O      0.099950000000     0.310950000000     0.290600000000     0          
O        O      0.101200000000     0.375850000000     0.292300000000     0          
O        O      0.060700000000     0.292350000000     0.218100000000     0          
T        Si     0.189850000000     0.342900000000     0.326800000000     0          
T        Si     0.211600000000     0.364600000000     0.430900000000     0          
T        Si     0.111050000000     0.342850000000     0.321950000000     0          
T        Si     0.096850000000     0.288000000000     0.242000000000     0          
T        Si     0.212200000000     0.439950000000     0.427200000000     0          
O        O      0.311000000000     0.297500000000     0.203250000000     0          
O        O      0.375800000000     0.298800000000     0.201900000000     0          
O        O      0.342800000000     0.294400000000     0.118300000000     0          
O        O      0.342000000000     0.349700000000     0.169250000000     0          
O        O      0.350100000000     0.310350000000     0.024300000000     0          
O        O      0.402200000000     0.299150000000     0.079750000000     0          
O        O      0.310950000000     0.400050000000     0.209400000000     0          
O        O      0.375850000000     0.398800000000     0.207700000000     0          
O        O      0.292350000000     0.439300000000     0.281900000000     0          
T        Si     0.342900000000     0.310150000000     0.173200000000     0          
T        Si     0.364600000000     0.288400000000     0.069100000000     0          
T        Si     0.342850000000     0.388950000000     0.178050000000     0          
T        Si     0.288000000000     0.403150000000     0.258000000000     0          
T        Si     0.439950000000     0.287800000000     0.072800000000     0          
O        O      0.297500000000     0.189000000000     0.296750000000     0          
O        O      0.298800000000     0.124200000000     0.298100000000     0          
O        O      0.294400000000     0.157200000000     0.381700000000     0          
O        O      0.349700000000     0.158000000000     0.330750000000     0          
O        O      0.310350000000     0.149900000000     0.475700000000     0          
O        O      0.299150000000     0.097800000000     0.420250000000     0          
O        O      0.400050000000     0.189050000000     0.290600000000     0          
O        O      0.398800000000     0.124150000000     0.292300000000     0          
O        O      0.439300000000     0.207650000000     0.218100000000     0          
T        Si     0.310150000000     0.157100000000     0.326800000000     0          
T        Si     0.288400000000     0.135400000000     0.430900000000     0          
T        Si     0.388950000000     0.157150000000     0.321950000000     0          
T        Si     0.403150000000     0.212000000000     0.242000000000     0          
T        Si     0.287800000000     0.060050000000     0.427200000000     0          
O        O      0.189000000000     0.202500000000     0.203250000000     0          
O        O      0.124200000000     0.201200000000     0.201900000000     0          
O        O      0.157200000000     0.205600000000     0.118300000000     0          
O        O      0.158000000000     0.150300000000     0.169250000000     0          
O        O      0.149900000000     0.189650000000     0.024300000000     0          
O        O      0.097800000000     0.200850000000     0.079750000000     0          
O        O      0.189050000000     0.099950000000     0.209400000000     0          
O        O      0.124150000000     0.101200000000     0.207700000000     0          
O        O      0.207650000000     0.060700000000     0.281900000000     0          
T        Si     0.157100000000     0.189850000000     0.173200000000     0          
T        Si     0.135400000000     0.211600000000     0.069100000000     0          
T        Si     0.157150000000     0.111050000000     0.178050000000     0          
T        Si     0.212000000000     0.096850000000     0.258000000000     0          
T        Si     0.060050000000     0.212200000000     0.072800000000     0          
O        O      0.047500000000     0.061000000000     0.546750000000     0          
O        O      0.048800000000     0.125800000000     0.548100000000     0          
O        O      0.044400000000     0.092800000000     0.631700000000     0          
O        O      0.099700000000     0.092000000000     0.580750000000     0          
O        O      0.060350000000     0.100100000000     0.725700000000     0          
O        O      0.049150000000     0.152200000000     0.670250000000     0          
O        O      0.000000000000     0.113350000000     0.695950000000     0          
O        O      0.150050000000     0.060950000000     0.540600000000     0          
O        O      0.157400000000     0.092600000000     0.625000000000     0          
O        O      0.148800000000     0.125850000000     0.542300000000     0          
O        O      0.147600000000     0.000000000000     0.507250000000     0          
O        O      0.189300000000     0.042350000000     0.968100000000     0          
O        O      0.000000000000     0.190900000000     0.695600000000     0          
O        O      0.040900000000     0.209100000000     0.625000000000     0          
O        O      0.000000000000     0.043800000000     0.985500000000     0          
T        Si     0.060150000000     0.092900000000     0.576800000000     0          
T        Si     0.038400000000     0.114600000000     0.680900000000     0          
T        Si     0.138950000000     0.092850000000     0.571950000000     0          
T        Si     0.153150000000     0.038000000000     0.992000000000     0          
T        Si     0.037800000000     0.189950000000     0.677200000000     0          
T        Si     0.038100000000     0.038100000000     0.500000000000     0          
T        Si     0.096500000000     0.096500000000     0.750000000000     0          
O        O      0.061000000000     0.452500000000     0.953250000000     0          
O        O      0.125800000000     0.451200000000     0.951900000000     0          
O        O      0.092800000000     0.455600000000     0.868300000000     0          
O        O      0.092000000000     0.400300000000     0.919250000000     0          
O        O      0.100100000000     0.439650000000     0.774300000000     0          
O        O      0.152200000000     0.450850000000     0.829750000000     0          
O        O      0.113350000000     0.000000000000     0.804050000000     0          
O        O      0.060950000000     0.349950000000     0.959400000000     0          
O        O      0.092600000000     0.342600000000     0.875000000000     0          
O        O      0.125850000000     0.351200000000     0.957700000000     0          
O        O      0.000000000000     0.352400000000     0.992750000000     0          
O        O      0.042350000000     0.310700000000     0.531900000000     0          
O        O      0.190900000000     0.000000000000     0.804400000000     0          
O        O      0.209100000000     0.459100000000     0.875000000000     0          
O        O      0.043800000000     0.000000000000     0.514500000000     0          
T        Si     0.092900000000     0.439850000000     0.923200000000     0          
T        Si     0.114600000000     0.461600000000     0.819100000000     0          
T        Si     0.092850000000     0.361050000000     0.928050000000     0          
T        Si     0.038000000000     0.346850000000     0.508000000000     0          
T        Si     0.189950000000     0.462200000000     0.822800000000     0          
T        Si     0.038100000000     0.461900000000     0.500000000000     0          
T        Si     0.096500000000     0.403500000000     0.750000000000     0          
O        O      0.452500000000     0.439000000000     0.546750000000     0          
O        O      0.451200000000     0.374200000000     0.548100000000     0          
O        O      0.455600000000     0.407200000000     0.631700000000     0          
O        O      0.400300000000     0.408000000000     0.580750000000     0          
O        O      0.439650000000     0.399900000000     0.725700000000     0          
O        O      0.450850000000     0.347800000000     0.670250000000     0          
O        O      0.000000000000     0.386650000000     0.695950000000     0          
O        O      0.349950000000     0.439050000000     0.540600000000     0          
O        O      0.342600000000     0.407400000000     0.625000000000     0          
O        O      0.351200000000     0.374150000000     0.542300000000     0          
O        O      0.352400000000     0.000000000000     0.507250000000     0          
O        O      0.310700000000     0.457650000000     0.968100000000     0          
O        O      0.000000000000     0.309100000000     0.695600000000     0          
O        O      0.459100000000     0.290900000000     0.625000000000     0          
O        O      0.000000000000     0.456200000000     0.985500000000     0          
T        Si     0.439850000000     0.407100000000     0.576800000000     0          
T        Si     0.461600000000     0.385400000000     0.680900000000     0          
T        Si     0.361050000000     0.407150000000     0.571950000000     0          
T        Si     0.346850000000     0.462000000000     0.992000000000     0          
T        Si     0.462200000000     0.310050000000     0.677200000000     0          
T        Si     0.461900000000     0.461900000000     0.500000000000     0          
T        Si     0.403500000000     0.403500000000     0.750000000000     0          
O        O      0.439000000000     0.047500000000     0.953250000000     0          
O        O      0.374200000000     0.048800000000     0.951900000000     0          
O        O      0.407200000000     0.044400000000     0.868300000000     0          
O        O      0.408000000000     0.099700000000     0.919250000000     0          
O        O      0.399900000000     0.060350000000     0.774300000000     0          
O        O      0.347800000000     0.049150000000     0.829750000000     0          
O        O      0.386650000000     0.000000000000     0.804050000000     0          
O        O      0.439050000000     0.150050000000     0.959400000000     0          
O        O      0.407400000000     0.157400000000     0.875000000000     0          
O        O      0.374150000000     0.148800000000     0.957700000000     0          
O        O      0.000000000000     0.147600000000     0.992750000000     0          
O        O      0.457650000000     0.189300000000     0.531900000000     0          
O        O      0.309100000000     0.000000000000     0.804400000000     0          
O        O      0.290900000000     0.040900000000     0.875000000000     0          
O        O      0.456200000000     0.000000000000     0.514500000000     0          
T        Si     0.407100000000     0.060150000000     0.923200000000     0          
T        Si     0.385400000000     0.038400000000     0.819100000000     0          
T        Si     0.407150000000     0.138950000000     0.928050000000     0          
T        Si     0.462000000000     0.153150000000     0.508000000000     0          
T        Si     0.310050000000     0.037800000000     0.822800000000     0          
T        Si     0.461900000000     0.038100000000     0.500000000000     0          
T        Si     0.403500000000     0.096500000000     0.750000000000     0          
O        O      0.452500000000     0.061000000000     0.546750000000     0          
O        O      0.451200000000     0.125800000000     0.548100000000     0          
O        O      0.455600000000     0.092800000000     0.631700000000     0          
O        O      0.400300000000     0.092000000000     0.580750000000     0          
O        O      0.439650000000     0.100100000000     0.725700000000     0          
O        O      0.450850000000     0.152200000000     0.670250000000     0          
O        O      0.349950000000     0.060950000000     0.540600000000     0          
O        O      0.342600000000     0.092600000000     0.625000000000     0          
O        O      0.351200000000     0.125850000000     0.542300000000     0          
O        O      0.310700000000     0.042350000000     0.968100000000     0          
O        O      0.459100000000     0.209100000000     0.625000000000     0          
T        Si     0.439850000000     0.092900000000     0.576800000000     0          
T        Si     0.461600000000     0.114600000000     0.680900000000     0          
T        Si     0.361050000000     0.092850000000     0.571950000000     0          
T        Si     0.346850000000     0.038000000000     0.992000000000     0          
T        Si     0.462200000000     0.189950000000     0.677200000000     0          
O        O      0.061000000000     0.047500000000     0.953250000000     0          
O        O      0.125800000000     0.048800000000     0.951900000000     0          
O        O      0.092800000000     0.044400000000     0.868300000000     0          
O        O      0.092000000000     0.099700000000     0.919250000000     0          
O        O      0.100100000000     0.060350000000     0.774300000000     0          
O        O      0.152200000000     0.049150000000     0.829750000000     0          
O        O      0.060950000000     0.150050000000     0.959400000000     0          
O        O      0.092600000000     0.157400000000     0.875000000000     0          
O        O      0.125850000000     0.148800000000     0.957700000000     0          
O        O      0.042350000000     0.189300000000     0.531900000000     0          
O        O      0.209100000000     0.040900000000     0.875000000000     0          
T        Si     0.092900000000     0.060150000000     0.923200000000     0          
T        Si     0.114600000000     0.038400000000     0.819100000000     0          
T        Si     0.092850000000     0.138950000000     0.928050000000     0          
T        Si     0.038000000000     0.153150000000     0.508000000000     0          
T        Si     0.189950000000     0.037800000000     0.822800000000     0          
O        O      0.047500000000     0.439000000000     0.546750000000     0          
O        O      0.048800000000     0.374200000000     0.548100000000     0          
O        O      0.044400000000     0.407200000000     0.631700000000     0          
O        O      0.099700000000     0.408000000000     0.580750000000     0          
O        O      0.060350000000     0.399900000000     0.725700000000     0          
O        O      0.049150000000     0.347800000000     0.670250000000     0          
O        O      0.150050000000     0.439050000000     0.540600000000     0          
O        O      0.157400000000     0.407400000000     0.625000000000     0          
O        O      0.148800000000     0.374150000000     0.542300000000     0          
O        O      0.189300000000     0.457650000000     0.968100000000     0          
O        O      0.040900000000     0.290900000000     0.625000000000     0          
T        Si     0.060150000000     0.407100000000     0.576800000000     0          
T        Si     0.038400000000     0.385400000000     0.680900000000     0          
T        Si     0.138950000000     0.407150000000     0.571950000000     0          
T        Si     0.153150000000     0.462000000000     0.992000000000     0          
T        Si     0.037800000000     0.310050000000     0.677200000000     0          
O        O      0.439000000000     0.452500000000     0.953250000000     0          
O        O      0.374200000000     0.451200000000     0.951900000000     0          
O        O      0.407200000000     0.455600000000     0.868300000000     0          
O        O      0.408000000000     0.400300000000     0.919250000000     0          
O        O      0.399900000000     0.439650000000     0.774300000000     0          
O        O      0.347800000000     0.450850000000     0.829750000000     0          
O        O      0.439050000000     0.349950000000     0.959400000000     0          
O        O      0.407400000000     0.342600000000     0.875000000000     0          
O        O      0.374150000000     0.351200000000     0.957700000000     0          
O        O      0.457650000000     0.310700000000     0.531900000000     0          
O        O      0.290900000000     0.459100000000     0.875000000000     0          
T        Si     0.407100000000     0.439850000000     0.923200000000     0          
T        Si     0.385400000000     0.461600000000     0.819100000000     0          
T        Si     0.407150000000     0.361050000000     0.928050000000     0          
T        Si     0.462000000000     0.346850000000     0.508000000000     0          
T        Si     0.310050000000     0.462200000000     0.822800000000     0          
O        O      0.297500000000     0.311000000000     0.796750000000     0          
O        O      0.298800000000     0.375800000000     0.798100000000     0          
O        O      0.294400000000     0.342800000000     0.881700000000     0          
O        O      0.349700000000     0.342000000000     0.830750000000     0          
O        O      0.310350000000     0.350100000000     0.975700000000     0          
O        O      0.299150000000     0.402200000000     0.920250000000     0          
O        O      0.250000000000     0.363350000000     0.945950000000     0          
O        O      0.400050000000     0.310950000000     0.790600000000     0          
O        O      0.398800000000     0.375850000000     0.792300000000     0          
O        O      0.397600000000     0.250000000000     0.757250000000     0          
O        O      0.439300000000     0.292350000000     0.718100000000     0          
O        O      0.250000000000     0.440900000000     0.945600000000     0          
O        O      0.250000000000     0.293800000000     0.735500000000     0          
T        Si     0.310150000000     0.342900000000     0.826800000000     0          
T        Si     0.288400000000     0.364600000000     0.930900000000     0          
T        Si     0.388950000000     0.342850000000     0.821950000000     0          
T        Si     0.403150000000     0.288000000000     0.742000000000     0          
T        Si     0.287800000000     0.439950000000     0.927200000000     0          
T        Si     0.288100000000     0.288100000000     0.750000000000     0          
T        Si     0.346500000000     0.346500000000     0.500000000000     0          
O        O      0.311000000000     0.202500000000     0.703250000000     0          
O        O      0.375800000000     0.201200000000     0.701900000000     0          
O        O      0.342800000000     0.205600000000     0.618300000000     0          
O        O      0.342000000000     0.150300000000     0.669250000000     0          
O        O      0.350100000000     0.189650000000     0.524300000000     0          
O        O      0.402200000000     0.200850000000     0.579750000000     0          
O        O      0.363350000000     0.250000000000     0.554050000000     0          
O        O      0.310950000000     0.099950000000     0.709400000000     0          
O        O      0.375850000000     0.101200000000     0.707700000000     0          
O        O      0.250000000000     0.102400000000     0.742750000000     0          
O        O      0.292350000000     0.060700000000     0.781900000000     0          
O        O      0.440900000000     0.250000000000     0.554400000000     0          
O        O      0.293800000000     0.250000000000     0.764500000000     0          
T        Si     0.342900000000     0.189850000000     0.673200000000     0          
T        Si     0.364600000000     0.211600000000     0.569100000000     0          
T        Si     0.342850000000     0.111050000000     0.678050000000     0          
T        Si     0.288000000000     0.096850000000     0.758000000000     0          
T        Si     0.439950000000     0.212200000000     0.572800000000     0          
T        Si     0.288100000000     0.211900000000     0.750000000000     0          
T        Si     0.346500000000     0.153500000000     0.500000000000     0          
O        O      0.202500000000     0.189000000000     0.796750000000     0          
O        O      0.201200000000     0.124200000000     0.798100000000     0          
O        O      0.205600000000     0.157200000000     0.881700000000     0          
O        O      0.150300000000     0.158000000000     0.830750000000     0          
O        O      0.189650000000     0.149900000000     0.975700000000     0          
O        O      0.200850000000     0.097800000000     0.920250000000     0          
O        O      0.250000000000     0.136650000000     0.945950000000     0          
O        O      0.099950000000     0.189050000000     0.790600000000     0          
O        O      0.101200000000     0.124150000000     0.792300000000     0          
O        O      0.102400000000     0.250000000000     0.757250000000     0          
O        O      0.060700000000     0.207650000000     0.718100000000     0          
O        O      0.250000000000     0.059100000000     0.945600000000     0          
O        O      0.250000000000     0.206200000000     0.735500000000     0          
T        Si     0.189850000000     0.157100000000     0.826800000000     0          
T        Si     0.211600000000     0.135400000000     0.930900000000     0          
T        Si     0.111050000000     0.157150000000     0.821950000000     0          
T        Si     0.096850000000     0.212000000000     0.742000000000     0          
T        Si     0.212200000000     0.060050000000     0.927200000000     0          
T        Si     0.211900000000     0.211900000000     0.750000000000     0          
T        Si     0.153500000000     0.153500000000     0.500000000000     0          
O        O      0.189000000000     0.297500000000     0.703250000000     0          
O        O      0.124200000000     0.298800000000     0.701900000000     0          
O        O      0.157200000000     0.294400000000     0.618300000000     0          
O        O      0.158000000000     0.349700000000     0.669250000000     0          
O        O      0.149900000000     0.310350000000     0.524300000000     0          
O        O      0.097800000000     0.299150000000     0.579750000000     0          
O        O      0.136650000000     0.250000000000     0.554050000000     0          
O        O      0.189050000000     0.400050000000     0.709400000000     0          
O        O      0.124150000000     0.398800000000     0.707700000000     0          
O        O      0.250000000000     0.397600000000     0.742750000000     0          
O        O      0.207650000000     0.439300000000     0.781900000000     0          
O        O      0.059100000000     0.250000000000     0.554400000000     0          
O        O      0.206200000000     0.250000000000     0.764500000000     0          
T        Si     0.157100000000     0.310150000000     0.673200000000     0          
T        Si     0.135400000000     0.288400000000     0.569100000000     0          
T        Si     0.157150000000     0.388950000000     0.678050000000     0          
T        Si     0.212000000000     0.403150000000     0.758000000000     0          
T        Si     0.060050000000     0.287800000000     0.572800000000     0          
T        Si     0.211900000000     0.288100000000     0.750000000000     0          
T        Si     0.153500000000     0.346500000000     0.500000000000     0          
O        O      0.202500000000     0.311000000000     0.796750000000     0          
O        O      0.201200000000     0.375800000000     0.798100000000     0          
O        O      0.205600000000     0.342800000000     0.881700000000     0          
O        O      0.150300000000     0.342000000000     0.830750000000     0          
O        O      0.189650000000     0.350100000000     0.975700000000     0          
O        O      0.200850000000     0.402200000000     0.920250000000     0          
O        O      0.099950000000     0.310950000000     0.790600000000     0          
O        O      0.101200000000     0.375850000000     0.792300000000     0          
O        O      0.060700000000     0.292350000000     0.718100000000     0          
T        Si     0.189850000000     0.342900000000     0.826800000000     0          
T        Si     0.211600000000     0.364600000000     0.930900000000     0          
T        Si     0.111050000000     0.342850000000     0.821950000000     0          
T        Si     0.096850000000     0.288000000000     0.742000000000     0          
T        Si     0.212200000000     0.439950000000     0.927200000000     0          
O        O      0.311000000000     0.297500000000     0.703250000000     0          
O        O      0.375800000000     0.298800000000     0.701900000000     0          
O        O      0.342800000000     0.294400000000     0.618300000000     0          
O        O      0.342000000000     0.349700000000     0.669250000000     0          
O        O      0.350100000000     0.310350000000     0.524300000000     0          
O        O      0.402200000000     0.299150000000     0.579750000000     0          
O        O      0.310950000000     0.400050000000     0.709400000000     0          
O        O      0.375850000000     0.398800000000     0.707700000000     0          
O        O      0.292350000000     0.439300000000     0.781900000000     0          
T        Si     0.342900000000     0.310150000000     0.673200000000     0          
T        Si     0.364600000000     0.288400000000     0.569100000000     0          
T        Si     0.342850000000     0.388950000000     0.678050000000     0          
T        Si     0.288000000000     0.403150000000     0.758000000000     0          
T        Si     0.439950000000     0.287800000000     0.572800000000     0          
O        O      0.297500000000     0.189000000000     0.796750000000     0          
O        O      0.298800000000     0.124200000000     0.798100000000     0          
O        O      0.294400000000     0.157200000000     0.881700000000     0          
O        O      0.349700000000     0.158000000000     0.830750000000     0          
O        O      0.310350000000     0.149900000000     0.975700000000     0          
O        O      0.299150000000     0.097800000000     0.920250000000     0          
O        O      0.400050000000     0.189050000000     0.790600000000     0          
O        O      0.398800000000     0.124150000000     0.792300000000     0          
O        O      0.439300000000     0.207650000000     0.718100000000     0          
T        Si     0.310150000000     0.157100000000     0.826800000000     0          
T        Si     0.288400000000     0.135400000000     0.930900000000     0          
T        Si     0.388950000000     0.157150000000     0.821950000000     0          
T        Si     0.403150000000     0.212000000000     0.742000000000     0          
T        Si     0.287800000000     0.060050000000     0.927200000000     0          
O        O      0.189000000000     0.202500000000     0.703250000000     0          
O        O      0.124200000000     0.201200000000     0.701900000000     0          
O        O      0.157200000000     0.205600000000     0.618300000000     0          
O        O      0.158000000000     0.150300000000     0.669250000000     0          
O        O      0.149900000000     0.189650000000     0.524300000000     0          
O        O      0.097800000000     0.200850000000     0.579750000000     0          
O        O      0.189050000000     0.099950000000     0.709400000000     0          
O        O      0.124150000000     0.101200000000     0.707700000000     0          
O        O      0.207650000000     0.060700000000     0.781900000000     0          
T        Si     0.157100000000     0.189850000000     0.673200000000     0          
T        Si     0.135400000000     0.211600000000     0.569100000000     0          
T        Si     0.157150000000     0.111050000000     0.678050000000     0          
T        Si     0.212000000000     0.096850000000     0.758000000000     0          
T        Si     0.060050000000     0.212200000000     0.572800000000     0          
O        O      0.047500000000     0.561000000000     0.046750000000     0          
O        O      0.048800000000     0.625800000000     0.048100000000     0          
O        O      0.044400000000     0.592800000000     0.131700000000     0          
O        O      0.099700000000     0.592000000000     0.080750000000     0          
O        O      0.060350000000     0.600100000000     0.225700000000     0          
O        O      0.049150000000     0.652200000000     0.170250000000     0          
O        O      0.000000000000     0.613350000000     0.195950000000     0          
O        O      0.150050000000     0.560950000000     0.040600000000     0          
O        O      0.157400000000     0.592600000000     0.125000000000     0          
O        O      0.148800000000     0.625850000000     0.042300000000     0          
O        O      0.147600000000     0.500000000000     0.007250000000     0          
O        O      0.189300000000     0.542350000000     0.468100000000     0          
O        O      0.000000000000     0.690900000000     0.195600000000     0          
O        O      0.040900000000     0.709100000000     0.125000000000     0          
O        O      0.000000000000     0.543800000000     0.485500000000     0          
T        Si     0.060150000000     0.592900000000     0.076800000000     0          
T        Si     0.038400000000     0.614600000000     0.180900000000     0          
T        Si     0.138950000000     0.592850000000     0.071950000000     0          
T        Si     0.153150000000     0.538000000000     0.492000000000     0          
T        Si     0.037800000000     0.689950000000     0.177200000000     0          
T        Si     0.038100000000     0.538100000000     0.000000000000     0          
T        Si     0.096500000000     0.596500000000     0.250000000000     0          
O        O      0.061000000000     0.952500000000     0.453250000000     0          
O        O      0.125800000000     0.951200000000     0.451900000000     0          
O        O      0.092800000000     0.955600000000     0.368300000000     0          
O        O      0.092000000000     0.900300000000     0.419250000000     0          
O        O      0.100100000000     0.939650000000     0.274300000000     0          
O        O      0.152200000000     0.950850000000     0.329750000000     0          
O        O      0.113350000000     0.500000000000     0.304050000000     0          
O        O      0.060950000000     0.849950000000     0.459400000000     0          
O        O      0.092600000000     0.842600000000     0.375000000000     0          
O        O      0.125850000000     0.851200000000     0.457700000000     0          
O        O      0.000000000000     0.852400000000     0.492750000000     0          
O        O      0.042350000000     0.810700000000     0.031900000000     0          
O        O      0.190900000000     0.500000000000     0.304400000000     0          
O        O      0.209100000000     0.959100000000     0.375000000000     0          
O        O      0.043800000000     0.500000000000     0.014500000000     0          
T        Si     0.092900000000     0.939850000000     0.423200000000     0          
T        Si     0.114600000000     0.961600000000     0.319100000000     0          
T        Si     0.092850000000     0.861050000000     0.428050000000     0          
T        Si     0.038000000000     0.846850000000     0.008000000000     0          
T        Si     0.189950000000     0.962200000000     0.322800000000     0          
T        Si     0.038100000000     0.961900000000     0.000000000000     0          
T        Si     0.096500000000     0.903500000000     0.250000000000     0          
O        O      0.452500000000     0.939000000000     0.046750000000     0          
O        O      0.451200000000     0.874200000000     0.048100000000     0          
O        O      0.455600000000     0.907200000000     0.131700000000     0          
O        O      0.400300000000     0.908000000000     0.080750000000     0          
O        O      0.439650000000     0.899900000000     0.225700000000     0          
O        O      0.450850000000     0.847800000000     0.170250000000     0          
O        O      0.000000000000     0.886650000000     0.195950000000     0          
O        O      0.349950000000     0.939050000000     0.040600000000     0          
O        O      0.342600000000     0.907400000000     0.125000000000     0          
O        O      0.351200000000     0.874150000000     0.042300000000     0          
O        O      0.352400000000     0.500000000000     0.007250000000     0          
O        O      0.310700000000     0.957650000000     0.468100000000     0          
O        O      0.000000000000     0.809100000000     0.195600000000     0          
O        O      0.459100000000     0.790900000000     0.125000000000     0          
O        O      0.000000000000     0.956200000000     0.485500000000     0          
T        Si     0.439850000000     0.907100000000     0.076800000000     0          
T        Si     0.461600000000     0.885400000000     0.180900000000     0          
T        Si     0.361050000000     0.907150000000     0.071950000000     0          
T        Si     0.346850000000     0.962000000000     0.492000000000     0          
T        Si     0.462200000000     0.810050000000     0.177200000000     0          
T        Si     0.461900000000     0.961900000000     0.000000000000     0          
T        Si     0.403500000000     0.903500000000     0.250000000000     0          
O        O      0.439000000000     0.547500000000     0.453250000000     0          
O        O      0.374200000000     0.548800000000     0.451900000000     0          
O        O      0.407200000000     0.544400000000     0.368300000000     0          
O        O      0.408000000000     0.599700000000     0.419250000000     0          
O        O      0.399900000000     0.560350000000     0.274300000000     0          
O        O      0.347800000000     0.549150000000     0.329750000000     0          
O        O      0.386650000000     0.500000000000     0.304050000000     0          
O        O      0.439050000000     0.650050000000     0.459400000000     0          
O        O      0.407400000000     0.657400000000     0.375000000000     0          
O        O      0.374150000000     0.648800000000     0.457700000000     0          
O        O      0.000000000000     0.647600000000     0.492750000000     0          
O        O      0.457650000000     0.689300000000     0.031900000000     0          
O        O      0.309100000000     0.500000000000     0.304400000000     0          
O        O      0.290900000000     0.540900000000     0.375000000000     0          
O        O      0.456200000000     0.500000000000     0.014500000000     0          
T        Si     0.407100000000     0.560150000000     0.423200000000     0          
T        Si     0.385400000000     0.538400000000     0.319100000000     0          
T        Si     0.407150000000     0.638950000000     0.428050000000     0          
T        Si     0.462000000000     0.653150000000     0.008000000000     0          
T        Si     0.310050000000     0.537800000000     0.322800000000     0          
T        Si     0.461900000000     0.538100000000     0.000000000000     0          
T        Si     0.403500000000     0.596500000000     0.250000000000     0          
O        O      0.452500000000     0.561000000000     0.046750000000     0          
O        O      0.451200000000     0.625800000000     0.048100000000     0          
O        O      0.455600000000     0.592800000000     0.131700000000     0          
O        O      0.400300000000     0.592000000000     0.080750000000     0          
O        O      0.439650000000     0.600100000000     0.225700000000     0          
O        O      0.450850000000     0.652200000000     0.170250000000     0          
O        O      0.349950000000     0.560950000000     0.040600000000     0          
O        O      0.342600000000     0.592600000000     0.125000000000     0          
O        O      0.351200000000     0.625850000000     0.042300000000     0          
O        O      0.310700000000     0.542350000000     0.468100000000     0          
O        O      0.459100000000     0.709100000000     0.125000000000     0          
T        Si     0.439850000000     0.592900000000     0.076800000000     0          
T        Si     0.461600000000     0.614600000000     0.180900000000     0          
T        Si     0.361050000000     0.592850000000     0.071950000000     0          
T        Si     0.346850000000     0.538000000000     0.492000000000     0          
T        Si     0.462200000000     0.689950000000     0.177200000000     0          
O        O      0.061000000000     0.547500000000     0.453250000000     0          
O        O      0.125800000000     0.548800000000     0.451900000000     0          
O        O      0.092800000000     0.544400000000     0.368300000000     0          
O        O      0.092000000000     0.599700000000     0.419250000000     0          
O        O      0.100100000000     0.560350000000     0.274300000000     0          
O        O      0.152200000000     0.549150000000     0.329750000000     0          
O        O      0.060950000000     0.650050000000     0.459400000000     0          
O        O      0.092600000000     0.657400000000     0.375000000000     0          
O        O      0.125850000000     0.648800000000     0.457700000000     0          
O        O      0.042350000000     0.689300000000     0.031900000000     0          
O        O      0.209100000000     0.540900000000     0.375000000000     0          
T        Si     0.092900000000     0.560150000000     0.423200000000     0          
T        Si     0.114600000000     0.538400000000     0.319100000000     0          
T        Si     0.092850000000     0.638950000000     0.428050000000     0          
T        Si     0.038000000000     0.653150000000     0.008000000000     0          
T        Si     0.189950000000     0.537800000000     0.322800000000     0          
O        O      0.047500000000     0.939000000000     0.046750000000     0          
O        O      0.048800000000     0.874200000000     0.048100000000     0          
O        O      0.044400000000     0.907200000000     0.131700000000     0          
O        O      0.099700000000     0.908000000000     0.080750000000     0          
O        O      0.060350000000     0.899900000000     0.225700000000     0          
O        O      0.049150000000     0.847800000000     0.170250000000     0          
O        O      0.150050000000     0.939050000000     0.040600000000     0          
O        O      0.157400000000     0.907400000000     0.125000000000     0          
O        O      0.148800000000     0.874150000000     0.042300000000     0          
O        O      0.189300000000     0.957650000000     0.468100000000     0          
O        O      0.040900000000     0.790900000000     0.125000000000     0          
T        Si     0.060150000000     0.907100000000     0.076800000000     0          
T        Si     0.038400000000     0.885400000000     0.180900000000     0          
T        Si     0.138950000000     0.907150000000     0.071950000000     0          
T        Si     0.153150000000     0.962000000000     0.492000000000     0          
T        Si     0.037800000000     0.810050000000     0.177200000000     0          
O        O      0.439000000000     0.952500000000     0.453250000000     0          
O        O      0.374200000000     0.951200000000     0.451900000000     0          
O        O      0.407200000000     0.955600000000     0.368300000000     0          
O        O      0.408000000000     0.900300000000     0.419250000000     0          
O        O      0.399900000000     0.939650000000     0.274300000000     0          
O        O      0.347800000000     0.950850000000     0.329750000000     0          
O        O      0.439050000000     0.849950000000     0.459400000000     0          
O        O      0.407400000000     0.842600000000     0.375000000000     0          
O        O      0.374150000000     0.851200000000     0.457700000000     0          
O        O      0.457650000000     0.810700000000     0.031900000000     0          
O        O      0.290900000000     0.959100000000     0.375000000000     0          
T        Si     0.407100000000     0.939850000000     0.423200000000     0          
T        Si     0.385400000000     0.961600000000     0.319100000000     0          
T        Si     0.407150000000     0.861050000000     0.428050000000     0          
T        Si     0.462000000000     0.846850000000     0.008000000000     0          
T        Si     0.310050000000     0.962200000000     0.322800000000     0          
O        O      0.297500000000     0.811000000000     0.296750000000     0          
O        O      0.298800000000     0.875800000000     0.298100000000     0          
O        O      0.294400000000     0.842800000000     0.381700000000     0          
O        O      0.349700000000     0.842000000000     0.330750000000     0          
O        O      0.310350000000     0.850100000000     0.475700000000     0          
O        O      0.299150000000     0.902200000000     0.420250000000     0          
O        O      0.250000000000     0.863350000000     0.445950000000     0          
O        O      0.400050000000     0.810950000000     0.290600000000     0          
O        O      0.398800000000     0.875850000000     0.292300000000     0          
O        O      0.397600000000     0.750000000000     0.257250000000     0          
O        O      0.439300000000     0.792350000000     0.218100000000     0          
O        O      0.250000000000     0.940900000000     0.445600000000     0          
O        O      0.250000000000     0.793800000000     0.235500000000     0          
T        Si     0.310150000000     0.842900000000     0.326800000000     0          
T        Si     0.288400000000     0.864600000000     0.430900000000     0          
T        Si     0.388950000000     0.842850000000     0.321950000000     0          
T        Si     0.403150000000     0.788000000000     0.242000000000     0          
T        Si     0.287800000000     0.939950000000     0.427200000000     0          
T        Si     0.288100000000     0.788100000000     0.250000000000     0          
T        Si     0.346500000000     0.846500000000     0.000000000000     0          
O        O      0.311000000000     0.702500000000     0.203250000000     0          
O        O      0.375800000000     0.701200000000     0.201900000000     0          
O        O      0.342800000000     0.705600000000     0.118300000000     0          
O        O      0.342000000000     0.650300000000     0.169250000000     0          
O        O      0.350100000000     0.689650000000     0.024300000000     0          
O        O      0.402200000000     0.700850000000     0.079750000000     0          
O        O      0.363350000000     0.750000000000     0.054050000000     0          
O        O      0.310950000000     0.599950000000     0.209400000000     0          
O        O      0.375850000000     0.601200000000     0.207700000000     0          
O        O      0.250000000000     0.602400000000     0.242750000000     0          
O        O      0.292350000000     0.560700000000     0.281900000000     0          
O        O      0.440900000000     0.750000000000     0.054400000000     0          
O        O      0.293800000000     0.750000000000     0.264500000000     0          
T        Si     0.342900000000     0.689850000000     0.173200000000     0          
T        Si     0.364600000000     0.711600000000     0.069100000000     0          
T        Si     0.342850000000     0.611050000000     0.178050000000     0          
T        Si     0.288000000000     0.596850000000     0.258000000000     0          
T        Si     0.439950000000     0.712200000000     0.072800000000     0          
T        Si     0.288100000000     0.711900000000     0.250000000000     0          
T        Si     0.346500000000     0.653500000000     0.000000000000     0          
O        O      0.202500000000     0.689000000000     0.296750000000     0          
O        O      0.201200000000     0.624200000000     0.298100000000     0          
O        O      0.205600000000     0.657200000000     0.381700000000     0          
O        O      0.150300000000     0.658000000000     0.330750000000     0          
O        O      0.189650000000     0.649900000000     0.475700000000     0          
O        O      0.200850000000     0.597800000000     0.420250000000     0          
O        O      0.250000000000     0.636650000000     0.445950000000     0          
O        O      0.099950000000     0.689050000000     0.290600000000     0          
O        O      0.101200000000     0.624150000000     0.292300000000     0          
O        O      0.102400000000     0.750000000000     0.257250000000     0          
O        O      0.060700000000     0.707650000000     0.218100000000     0          
O        O      0.250000000000     0.559100000000     0.445600000000     0          
O        O      0.250000000000     0.706200000000     0.235500000000     0          
T        Si     0.189850000000     0.657100000000     0.326800000000     0          
T        Si     0.211600000000     0.635400000000     0.430900000000     0          
T        Si     0.111050000000     0.657150000000     0.321950000000     0          
T        Si     0.096850000000     0.712000000000     0.242000000000     0          
T        Si     0.212200000000     0.560050000000     0.427200000000     0          
T        Si     0.211900000000     0.711900000000     0.250000000000     0          
T        Si     0.153500000000     0.653500000000     0.000000000000     0          
O        O      0.189000000000     0.797500000000     0.203250000000     0          
O        O      0.124200000000     0.798800000000     0.201900000000     0          
O        O      0.157200000000     0.794400000000     0.118300000000     0          
O        O      0.158000000000     0.849700000000     0.169250000000     0          
O        O      0.149900000000     0.810350000000     0.024300000000     0          
O        O      0.097800000000     0.799150000000     0.079750000000     0          
O        O      0.136650000000     0.750000000000     0.054050000000     0          
O        O      0.189050000000     0.900050000000     0.209400000000     0          
O        O      0.124150000000     0.898800000000     0.207700000000     0          
O        O      0.250000000000     0.897600000000     0.242750000000     0          
O        O      0.207650000000     0.939300000000     0.281900000000     0          
O        O      0.059100000000     0.750000000000     0.054400000000     0          
O        O      0.206200000000     0.750000000000     0.264500000000     0          
T        Si     0.157100000000     0.810150000000     0.173200000000     0          
T        Si     0.135400000000     0.788400000000     0.069100000000     0          
T        Si     0.157150000000     0.888950000000     0.178050000000     0          
T        Si     0.212000000000     0.903150000000     0.258000000000     0          
T        Si     0.060050000000     0.787800000000     0.072800000000     0          
T        Si     0.211900000000     0.788100000000     0.250000000000     0          
T        Si     0.153500000000     0.846500000000     0.000000000000     0          
O        O      0.202500000000     0.811000000000     0.296750000000     0          
O        O      0.201200000000     0.875800000000     0.298100000000     0          
O        O      0.205600000000     0.842800000000     0.381700000000     0          
O        O      0.150300000000     0.842000000000     0.330750000000     0          
O        O      0.189650000000     0.850100000000     0.475700000000     0          
O        O      0.200850000000     0.902200000000     0.420250000000     0          
O        O      0.099950000000     0.810950000000     0.290600000000     0          
O        O      0.101200000000     0.875850000000     0.292300000000     0          
O        O      0.060700000000     0.792350000000     0.218100000000     0          
T        Si     0.189850000000     0.842900000000     0.326800000000     0          
T        Si     0.211600000000     0.864600000000     0.430900000000     0          
T        Si     0.111050000000     0.842850000000     0.321950000000     0          
T        Si     0.096850000000     0.788000000000     0.242000000000     0          
T        Si     0.212200000000     0.939950000000     0.427200000000     0          
O        O      0.311000000000     0.797500000000     0.203250000000     0          
O        O      0.375800000000     0.798800000000     0.201900000000     0          
O        O      0.342800000000     0.794400000000     0.118300000000     0          
O        O      0.342000000000     0.849700000000     0.169250000000     0          
O        O      0.350100000000     0.810350000000     0.024300000000     0          
O        O      0.402200000000     0.799150000000     0.079750000000     0          
O        O      0.310950000000     0.900050000000     0.209400000000     0          
O        O      0.375850000000     0.898800000000     0.207700000000     0          
O        O      0.292350000000     0.939300000000     0.281900000000     0          
T        Si     0.342900000000     0.810150000000     0.173200000000     0          
T        Si     0.364600000000     0.788400000000     0.069100000000     0          
T        Si     0.342850000000     0.888950000000     0.178050000000     0          
T        Si     0.288000000000     0.903150000000     0.258000000000     0          
T        Si     0.439950000000     0.787800000000     0.072800000000     0          
O        O      0.297500000000     0.689000000000     0.296750000000     0          
O        O      0.298800000000     0.624200000000     0.298100000000     0          
O        O      0.294400000000     0.657200000000     0.381700000000     0          
O        O      0.349700000000     0.658000000000     0.330750000000     0          
O        O      0.310350000000     0.649900000000     0.475700000000     0          
O        O      0.299150000000     0.597800000000     0.420250000000     0          
O        O      0.400050000000     0.689050000000     0.290600000000     0          
O        O      0.398800000000     0.624150000000     0.292300000000     0          
O        O      0.439300000000     0.707650000000     0.218100000000     0          
T        Si     0.310150000000     0.657100000000     0.326800000000     0          
T        Si     0.288400000000     0.635400000000     0.430900000000     0          
T        Si     0.388950000000     0.657150000000     0.321950000000     0          
T        Si     0.403150000000     0.712000000000     0.242000000000     0          
T        Si     0.287800000000     0.560050000000     0.427200000000     0          
O        O      0.189000000000     0.702500000000     0.203250000000     0          
O        O      0.124200000000     0.701200000000     0.201900000000     0          
O        O      0.157200000000     0.705600000000     0.118300000000     0          
O        O      0.158000000000     0.650300000000     0.169250000000     0          
O        O      0.149900000000     0.689650000000     0.024300000000     0          
O        O      0.097800000000     0.700850000000     0.079750000000     0          
O        O      0.189050000000     0.599950000000     0.209400000000     0          
O        O      0.124150000000     0.601200000000     0.207700000000     0          
O        O      0.207650000000     0.560700000000     0.281900000000     0          
T        Si     0.157100000000     0.689850000000     0.173200000000     0          
T        Si     0.135400000000     0.711600000000     0.069100000000     0          
T        Si     0.157150000000     0.611050000000     0.178050000000     0          
T        Si     0.212000000000     0.596850000000     0.258000000000     0          
T        Si     0.060050000000     0.712200000000     0.072800000000     0          
O        O      0.047500000000     0.561000000000     0.546750000000     0          
O        O      0.048800000000     0.625800000000     0.548100000000     0          
O        O      0.044400000000     0.592800000000     0.631700000000     0          
O        O      0.099700000000     0.592000000000     0.580750000000     0          
O        O      0.060350000000     0.600100000000     0.725700000000     0          
O        O      0.049150000000     0.652200000000     0.670250000000     0          
O        O      0.000000000000     0.613350000000     0.695950000000     0          
O        O      0.150050000000     0.560950000000     0.540600000000     0          
O        O      0.157400000000     0.592600000000     0.625000000000     0          
O        O      0.148800000000     0.625850000000     0.542300000000     0          
O        O      0.147600000000     0.500000000000     0.507250000000     0          
O        O      0.189300000000     0.542350000000     0.968100000000     0          
O        O      0.000000000000     0.690900000000     0.695600000000     0          
O        O      0.040900000000     0.709100000000     0.625000000000     0          
O        O      0.000000000000     0.543800000000     0.985500000000     0          
T        Si     0.060150000000     0.592900000000     0.576800000000     0          
T        Si     0.038400000000     0.614600000000     0.680900000000     0          
T        Si     0.138950000000     0.592850000000     0.571950000000     0          
T        Si     0.153150000000     0.538000000000     0.992000000000     0          
T        Si     0.037800000000     0.689950000000     0.677200000000     0          
T        Si     0.038100000000     0.538100000000     0.500000000000     0          
T        Si     0.096500000000     0.596500000000     0.750000000000     0          
O        O      0.061000000000     0.952500000000     0.953250000000     0          
O        O      0.125800000000     0.951200000000     0.951900000000     0          
O        O      0.092800000000     0.955600000000     0.868300000000     0          
O        O      0.092000000000     0.900300000000     0.919250000000     0          
O        O      0.100100000000     0.939650000000     0.774300000000     0          
O        O      0.152200000000     0.950850000000     0.829750000000     0          
O        O      0.113350000000     0.500000000000     0.804050000000     0          
O        O      0.060950000000     0.849950000000     0.959400000000     0          
O        O      0.092600000000     0.842600000000     0.875000000000     0          
O        O      0.125850000000     0.851200000000     0.957700000000     0          
O        O      0.000000000000     0.852400000000     0.992750000000     0          
O        O      0.042350000000     0.810700000000     0.531900000000     0          
O        O      0.190900000000     0.500000000000     0.804400000000     0          
O        O      0.209100000000     0.959100000000     0.875000000000     0          
O        O      0.043800000000     0.500000000000     0.514500000000     0          
T        Si     0.092900000000     0.939850000000     0.923200000000     0          
T        Si     0.114600000000     0.961600000000     0.819100000000     0          
T        Si     0.092850000000     0.861050000000     0.928050000000     0          
T        Si     0.038000000000     0.846850000000     0.508000000000     0          
T        Si     0.189950000000     0.962200000000     0.822800000000     0          
T        Si     0.038100000000     0.961900000000     0.500000000000     0          
T        Si     0.096500000000     0.903500000000     0.750000000000     0          
O        O      0.452500000000     0.939000000000     0.546750000000     0          
O        O      0.451200000000     0.874200000000     0.548100000000     0          
O        O      0.455600000000     0.907200000000     0.631700000000     0          
O        O      0.400300000000     0.908000000000     0.580750000000     0          
O        O      0.439650000000     0.899900000000     0.725700000000     0          
O        O      0.450850000000     0.847800000000     0.670250000000     0          
O        O      0.000000000000     0.886650000000     0.695950000000     0          
O        O      0.349950000000     0.939050000000     0.540600000000     0          
O        O      0.342600000000     0.907400000000     0.625000000000     0          
O        O      0.351200000000     0.874150000000     0.542300000000     0          
O        O      0.352400000000     0.500000000000     0.507250000000     0          
O        O      0.310700000000     0.957650000000     0.968100000000     0          
O        O      0.000000000000     0.809100000000     0.695600000000     0          
O        O      0.459100000000     0.790900000000     0.625000000000     0          
O        O      0.000000000000     0.956200000000     0.985500000000     0          
T        Si     0.439850000000     0.907100000000     0.576800000000     0          
T        Si     0.461600000000     0.885400000000     0.680900000000     0          
T        Si     0.361050000000     0.907150000000     0.571950000000     0          
T        Si     0.346850000000     0.962000000000     0.992000000000     0          
T        Si     0.462200000000     0.810050000000     0.677200000000     0          
T        Si     0.461900000000     0.961900000000     0.500000000000     0          
T        Si     0.403500000000     0.903500000000     0.750000000000     0          
O        O      0.439000000000     0.547500000000     0.953250000000     0          
O        O      0.374200000000     0.548800000000     0.951900000000     0          
O        O      0.407200000000     0.544400000000     0.868300000000     0          
O        O      0.408000000000     0.599700000000     0.919250000000     0          
O        O      0.399900000000     0.560350000000     0.774300000000     0          
O        O      0.347800000000     0.549150000000     0.829750000000     0          
O        O      0.386650000000     0.500000000000     0.804050000000     0          
O        O      0.439050000000     0.650050000000     0.959400000000     0          
O        O      0.407400000000     0.657400000000     0.875000000000     0          
O        O      0.374150000000     0.648800000000     0.957700000000     0          
O        O      0.000000000000     0.647600000000     0.992750000000     0          
O        O      0.457650000000     0.689300000000     0.531900000000     0          
O        O      0.309100000000     0.500000000000     0.804400000000     0          
O        O      0.290900000000     0.540900000000     0.875000000000     0          
O        O      0.456200000000     0.500000000000     0.514500000000     0          
T        Si     0.407100000000     0.560150000000     0.923200000000     0          
T        Si     0.385400000000     0.538400000000     0.819100000000     0          
T        Si     0.407150000000     0.638950000000     0.928050000000     0          
T        Si     0.462000000000     0.653150000000     0.508000000000     0          
T        Si     0.310050000000     0.537800000000     0.822800000000     0          
T        Si     0.461900000000     0.538100000000     0.500000000000     0          
T        Si     0.403500000000     0.596500000000     0.750000000000     0          
O        O      0.452500000000     0.561000000000     0.546750000000     0          
O        O      0.451200000000     0.625800000000     0.548100000000     0          
O        O      0.455600000000     0.592800000000     0.631700000000     0          
O        O      0.400300000000     0.592000000000     0.580750000000     0          
O        O      0.439650000000     0.600100000000     0.725700000000     0          
O        O      0.450850000000     0.652200000000     0.670250000000     0          
O        O      0.349950000000     0.560950000000     0.540600000000     0          
O        O      0.342600000000     0.592600000000     0.625000000000     0          
O        O      0.351200000000     0.625850000000     0.542300000000     0          
O        O      0.310700000000     0.542350000000     0.968100000000     0          
O        O      0.459100000000     0.709100000000     0.625000000000     0          
T        Si     0.439850000000     0.592900000000     0.576800000000     0          
T        Si     0.461600000000     0.614600000000     0.680900000000     0          
T        Si     0.361050000000     0.592850000000     0.571950000000     0          
T        Si     0.346850000000     0.538000000000     0.992000000000     0          
T        Si     0.462200000000     0.689950000000     0.677200000000     0          
O        O      0.061000000000     0.547500000000     0.953250000000     0          
O        O      0.125800000000     0.548800000000     0.951900000000     0          
O        O      0.092800000000     0.544400000000     0.868300000000     0          
O        O      0.092000000000     0.599700000000     0.919250000000     0          
O        O      0.100100000000     0.560350000000     0.774300000000     0          
O        O      0.152200000000     0.549150000000     0.829750000000     0          
O        O      0.060950000000     0.650050000000     0.959400000000     0          
O        O      0.092600000000     0.657400000000     0.875000000000     0          
O        O      0.125850000000     0.648800000000     0.957700000000     0          
O        O      0.042350000000     0.689300000000     0.531900000000     0          
O        O      0.209100000000     0.540900000000     0.875000000000     0          
T        Si     0.092900000000     0.560150000000     0.923200000000     0          
T        Si     0.114600000000     0.538400000000     0.819100000000     0          
T        Si     0.092850000000     0.638950000000     0.928050000000     0          
T        Si     0.038000000000     0.653150000000     0.508000000000     0          
T        Si     0.189950000000     0.537800000000     0.822800000000     0          
O        O      0.047500000000     0.939000000000     0.546750000000     0          
O        O      0.048800000000     0.874200000000     0.548100000000     0          
O        O      0.044400000000     0.907200000000     0.631700000000     0          
O        O      0.099700000000     0.908000000000     0.580750000000     0          
O        O      0.060350000000     0.899900000000     0.725700000000     0          
O        O      0.049150000000     0.847800000000     0.670250000000     0          
O        O      0.150050000000     0.939050000000     0.540600000000     0          
O        O      0.157400000000     0.907400000000     0.625000000000     0          
O        O      0.148800000000     0.874150000000     0.542300000000     0          
O        O      0.189300000000     0.957650000000     0.968100000000     0          
O        O      0.040900000000     0.790900000000     0.625000000000     0          
T        Si     0.060150000000     0.907100000000     0.576800000000     0          
T        Si     0.038400000000     0.885400000000     0.680900000000     0          
T        Si     0.138950000000     0.907150000000     0.571950000000     0          
T        Si     0.153150000000     0.962000000000     0.992000000000     0          
T        Si     0.037800000000     0.810050000000     0.677200000000     0          
O        O      0.439000000000     0.952500000000     0.953250000000     0          
O        O      0.374200000000     0.951200000000     0.951900000000     0          
O        O      0.407200000000     0.955600000000     0.868300000000     0          
O        O      0.408000000000     0.900300000000     0.919250000000     0          
O        O      0.399900000000     0.939650000000     0.774300000000     0          
O        O      0.347800000000     0.950850000000     0.829750000000     0          
O        O      0.439050000000     0.849950000000     0.959400000000     0          
O        O      0.407400000000     0.842600000000     0.875000000000     0          
O        O      0.374150000000     0.851200000000     0.957700000000     0          
O        O      0.457650000000     0.810700000000     0.531900000000     0          
O        O      0.290900000000     0.959100000000     0.875000000000     0          
T        Si     0.407100000000     0.939850000000     0.923200000000     0          
T        Si     0.385400000000     0.961600000000     0.819100000000     0          
T        Si     0.407150000000     0.861050000000     0.928050000000     0          
T        Si     0.462000000000     0.846850000000     0.508000000000     0          
T        Si     0.310050000000     0.962200000000     0.822800000000     0          
O        O      0.297500000000     0.811000000000     0.796750000000     0          
O        O      0.298800000000     0.875800000000     0.798100000000     0          
O        O      0.294400000000     0.842800000000     0.881700000000     0          
O        O      0.349700000000     0.842000000000     0.830750000000     0          
O        O      0.310350000000     0.850100000000     0.975700000000     0          
O        O      0.299150000000     0.902200000000     0.920250000000     0          
O        O      0.250000000000     0.863350000000     0.945950000000     0          
O        O      0.400050000000     0.810950000000     0.790600000000     0          
O        O      0.398800000000     0.875850000000     0.792300000000     0          
O        O      0.397600000000     0.750000000000     0.757250000000     0          
O        O      0.439300000000     0.792350000000     0.718100000000     0          
O        O      0.250000000000     0.940900000000     0.945600000000     0          
O        O      0.250000000000     0.793800000000     0.735500000000     0          
T        Si     0.310150000000     0.842900000000     0.826800000000     0          
T        Si     0.288400000000     0.864600000000     0.930900000000     0          
T        Si     0.388950000000     0.842850000000     0.821950000000     0          
T        Si     0.403150000000     0.788000000000     0.742000000000     0          
T        Si     0.287800000000     0.939950000000     0.927200000000     0          
T        Si     0.288100000000     0.788100000000     0.750000000000     0          
T        Si     0.346500000000     0.846500000000     0.500000000000     0          
O        O      0.311000000000     0.702500000000     0.703250000000     0          
O        O      0.375800000000     0.701200000000     0.701900000000     0          
O        O      0.342800000000     0.705600000000     0.618300000000     0          
O        O      0.342000000000     0.650300000000     0.669250000000     0          
O        O      0.350100000000     0.689650000000     0.524300000000     0          
O        O      0.402200000000     0.700850000000     0.579750000000     0          
O        O      0.363350000000     0.750000000000     0.554050000000     0          
O        O      0.310950000000     0.599950000000     0.709400000000     0          
O        O      0.375850000000     0.601200000000     0.707700000000     0          
O        O      0.250000000000     0.602400000000     0.742750000000     0          
O        O      0.292350000000     0.560700000000     0.781900000000     0          
O        O      0.440900000000     0.750000000000     0.554400000000     0          
O        O      0.293800000000     0.750000000000     0.764500000000     0          
T        Si     0.342900000000     0.689850000000     0.673200000000     0          
T        Si     0.364600000000     0.711600000000     0.569100000000     0          
T        Si     0.342850000000     0.611050000000     0.678050000000     0          
T        Si     0.288000000000     0.596850000000     0.758000000000     0          
T        Si     0.439950000000     0.712200000000     0.572800000000     0          
T        Si     0.288100000000     0.711900000000     0.750000000000     0          
T        Si     0.346500000000     0.653500000000     0.500000000000     0          
O        O      0.202500000000     0.689000000000     0.796750000000     0          
O        O      0.201200000000     0.624200000000     0.798100000000     0          
O        O      0.205600000000     0.657200000000     0.881700000000     0          
O        O      0.150300000000     0.658000000000     0.830750000000     0          
O        O      0.189650000000     0.649900000000     0.975700000000     0          
O        O      0.200850000000     0.597800000000     0.920250000000     0          
O        O      0.250000000000     0.636650000000     0.945950000000     0          
O        O      0.099950000000     0.689050000000     0.790600000000     0          
O        O      0.101200000000     0.624150000000     0.792300000000     0          
O        O      0.102400000000     0.750000000000     0.757250000000     0          
O        O      0.060700000000     0.707650000000     0.718100000000     0          
O        O      0.250000000000     0.559100000000     0.945600000000     0          
O        O      0.250000000000     0.706200000000     0.735500000000     0          
T        Si     0.189850000000     0.657100000000     0.826800000000     0          
T        Si     0.211600000000     0.635400000000     0.930900000000     0          
T        Si     0.111050000000     0.657150000000     0.821950000000     0          
T        Si     0.096850000000     0.712000000000     0.742000000000     0          
T        Si     0.212200000000     0.560050000000     0.927200000000     0          
T        Si     0.211900000000     0.711900000000     0.750000000000     0          
T        Si     0.153500000000     0.653500000000     0.500000000000     0          
O        O      0.189000000000     0.797500000000     0.703250000000     0          
O        O      0.124200000000     0.798800000000     0.701900000000     0          
O        O      0.157200000000     0.794400000000     0.618300000000     0          
O        O      0.158000000000     0.849700000000     0.669250000000     0          
O        O      0.149900000000     0.810350000000     0.524300000000     0          
O        O      0.097800000000     0.799150000000     0.579750000000     0          
O        O      0.136650000000     0.750000000000     0.554050000000     0          
O        O      0.189050000000     0.900050000000     0.709400000000     0          
O        O      0.124150000000     0.898800000000     0.707700000000     0          
O        O      0.250000000000     0.897600000000     0.742750000000     0          
O        O      0.207650000000     0.939300000000     0.781900000000     0          
O        O      0.059100000000     0.750000000000     0.554400000000     0          
O        O      0.206200000000     0.750000000000     0.764500000000     0          
T        Si     0.157100000000     0.810150000000     0.673200000000     0          
T        Si     0.135400000000     0.788400000000     0.569100000000     0          
T        Si     0.157150000000     0.888950000000     0.678050000000     0          
T        Si     0.212000000000     0.903150000000     0.758000000000     0          
T        Si     0.060050000000     0.787800000000     0.572800000000     0          
T        Si     0.211900000000     0.788100000000     0.750000000000     0          
T        Si     0.153500000000     0.846500000000     0.500000000000     0          
O        O      0.202500000000     0.811000000000     0.796750000000     0          
O        O      0.201200000000     0.875800000000     0.798100000000     0          
O        O      0.205600000000     0.842800000000     0.881700000000     0          
O        O      0.150300000000     0.842000000000     0.830750000000     0          
O        O      0.189650000000     0.850100000000     0.975700000000     0          
O        O      0.200850000000     0.902200000000     0.920250000000     0          
O        O      0.099950000000     0.810950000000     0.790600000000     0          
O        O      0.101200000000     0.875850000000     0.792300000000     0          
O        O      0.060700000000     0.792350000000     0.718100000000     0          
T        Si     0.189850000000     0.842900000000     0.826800000000     0          
T        Si     0.211600000000     0.864600000000     0.930900000000     0          
T        Si     0.111050000000     0.842850000000     0.821950000000     0          
T        Si     0.096850000000     0.788000000000     0.742000000000     0          
T        Si     0.212200000000     0.939950000000     0.927200000000     0          
O        O      0.311000000000     0.797500000000     0.703250000000     0          
O        O      0.375800000000     0.798800000000     0.701900000000     0          
O        O      0.342800000000     0.794400000000     0.618300000000     0          
O        O      0.342000000000     0.849700000000     0.669250000000     0          
O        O      0.350100000000     0.810350000000     0.524300000000     0          
O        O      0.402200000000     0.799150000000     0.579750000000     0          
O        O      0.310950000000     0.900050000000     0.709400000000     0          
O        O      0.375850000000     0.898800000000     0.707700000000     0          
O        O      0.292350000000     0.939300000000     0.781900000000     0          
T        Si     0.342900000000     0.810150000000     0.673200000000     0          
T        Si     0.364600000000     0.788400000000     0.569100000000     0          
T        Si     0.342850000000     0.888950000000     0.678050000000     0          
T        Si     0.288000000000     0.903150000000     0.758000000000     0          
T        Si     0.439950000000     0.787800000000     0.572800000000     0          
O        O      0.297500000000     0.689000000000     0.796750000000     0          
O        O      0.298800000000     0.624200000000     0.798100000000     0          
O        O      0.294400000000     0.657200000000     0.881700000000     0          
O        O      0.349700000000     0.658000000000     0.830750000000     0          
O        O      0.310350000000     0.649900000000     0.975700000000     0          
O        O      0.299150000000     0.597800000000     0.920250000000     0          
O        O      0.400050000000     0.689050000000     0.790600000000     0          
O        O      0.398800000000     0.624150000000     0.792300000000     0          
O        O      0.439300000000     0.707650000000     0.718100000000     0          
T        Si     0.310150000000     0.657100000000     0.826800000000     0          
T        Si     0.288400000000     0.635400000000     0.930900000000     0          
T        Si     0.388950000000     0.657150000000     0.821950000000     0          
T        Si     0.403150000000     0.712000000000     0.742000000000     0          
T        Si     0.287800000000     0.560050000000     0.927200000000     0          
O        O      0.189000000000     0.702500000000     0.703250000000     0          
O        O      0.124200000000     0.701200000000     0.701900000000     0          
O        O      0.157200000000     0.705600000000     0.618300000000     0          
O        O      0.158000000000     0.650300000000     0.669250000000     0          
O        O      0.149900000000     0.689650000000     0.524300000000     0          
O        O      0.097800000000     0.700850000000     0.579750000000     0          
O        O      0.189050000000     0.599950000000     0.709400000000     0          
O        O      0.124150000000     0.601200000000     0.707700000000     0          
O        O      0.207650000000     0.560700000000     0.781900000000     0          
T        Si     0.157100000000     0.689850000000     0.673200000000     0          
T        Si     0.135400000000     0.711600000000     0.569100000000     0          
T        Si     0.157150000000     0.611050000000     0.678050000000     0          
T        Si     0.212000000000     0.596850000000     0.758000000000     0          
T        Si     0.060050000000     0.712200000000     0.572800000000     0          
O        O      0.547500000000     0.061000000000     0.046750000000     0          
O        O      0.548800000000     0.125800000000     0.048100000000     0          
O        O      0.544400000000     0.092800000000     0.131700000000     0          
O        O      0.599700000000     0.092000000000     0.080750000000     0          
O        O      0.560350000000     0.100100000000     0.225700000000     0          
O        O      0.549150000000     0.152200000000     0.170250000000     0          
O        O      0.500000000000     0.113350000000     0.195950000000     0          
O        O      0.650050000000     0.060950000000     0.040600000000     0          
O        O      0.657400000000     0.092600000000     0.125000000000     0          
O        O      0.648800000000     0.125850000000     0.042300000000     0          
O        O      0.647600000000     0.000000000000     0.007250000000     0          
O        O      0.689300000000     0.042350000000     0.468100000000     0          
O        O      0.500000000000     0.190900000000     0.195600000000     0          
O        O      0.540900000000     0.209100000000     0.125000000000     0          
O        O      0.500000000000     0.043800000000     0.485500000000     0          
T        Si     0.560150000000     0.092900000000     0.076800000000     0          
T        Si     0.538400000000     0.114600000000     0.180900000000     0          
T        Si     0.638950000000     0.092850000000     0.071950000000     0          
T        Si     0.653150000000     0.038000000000     0.492000000000     0          
T        Si     0.537800000000     0.189950000000     0.177200000000     0          
T        Si     0.538100000000     0.038100000000     0.000000000000     0          
T        Si     0.596500000000     0.096500000000     0.250000000000     0          
O        O      0.561000000000     0.452500000000     0.453250000000     0          
O        O      0.625800000000     0.451200000000     0.451900000000     0          
O        O      0.592800000000     0.455600000000     0.368300000000     0          
O        O      0.592000000000     0.400300000000     0.419250000000     0          
O        O      0.600100000000     0.439650000000     0.274300000000     0          
O        O      0.652200000000     0.450850000000     0.329750000000     0          
O        O      0.613350000000     0.000000000000     0.304050000000     0          
O        O      0.560950000000     0.349950000000     0.459400000000     0          
O        O      0.592600000000     0.342600000000     0.375000000000     0          
O        O      0.625850000000     0.351200000000     0.457700000000     0          
O        O      0.500000000000     0.352400000000     0.492750000000     0          
O        O      0.542350000000     0.310700000000     0.031900000000     0          
O        O      0.690900000000     0.000000000000     0.304400000000     0          
O        O      0.709100000000     0.459100000000     0.375000000000     0          
O        O      0.543800000000     0.000000000000     0.014500000000     0          
T        Si     0.592900000000     0.439850000000     0.423200000000     0          
T        Si     0.614600000000     0.461600000000     0.319100000000     0          
T        Si     0.592850000000     0.361050000000     0.428050000000     0          
T        Si     0.538000000000     0.346850000000     0.008000000000     0          
T        Si     0.689950000000     0.462200000000     0.322800000000     0          
T        Si     0.538100000000     0.461900000000     0.000000000000     0          
T        Si     0.596500000000     0.403500000000     0.250000000000     0          
O        O      0.952500000000     0.439000000000     0.046750000000     0          
O        O      0.951200000000     0.374200000000     0.048100000000     0          
O        O      0.955600000000     0.407200000000     0.131700000000     0          
O        O      0.900300000000     0.408000000000     0.080750000000     0          
O        O      0.939650000000     0.399900000000     0.225700000000     0          
O        O      0.950850000000     0.347800000000     0.170250000000     0          
O        O      0.500000000000     0.386650000000     0.195950000000     0          
O        O      0.849950000000     0.439050000000     0.040600000000     0          
O        O      0.842600000000     0.407400000000     0.125000000000     0          
O        O      0.851200000000     0.374150000000     0.042300000000     0          
O        O      0.852400000000     0.000000000000     0.007250000000     0          
O        O      0.810700000000     0.457650000000     0.468100000000     0          
O        O      0.500000000000     0.309100000000     0.195600000000     0          
O        O      0.959100000000     0.290900000000     0.125000000000     0          
O        O      0.500000000000     0.456200000000     0.485500000000     0          
T        Si     0.939850000000     0.407100000000     0.076800000000     0          
T        Si     0.961600000000     0.385400000000     0.180900000000     0          
T        Si     0.861050000000     0.407150000000     0.071950000000     0          
T        Si     0.846850000000     0.462000000000     0.492000000000     0          
T        Si     0.962200000000     0.310050000000     0.177200000000     0          
T        Si     0.961900000000     0.461900000000     0.000000000000     0          
T        Si     0.903500000000     0.403500000000     0.250000000000     0          
O        O      0.939000000000     0.047500000000     0.453250000000     0          
O        O      0.874200000000     0.048800000000     0.451900000000     0          
O        O      0.907200000000     0.044400000000     0.368300000000     0          
O        O      0.908000000000     0.099700000000     0.419250000000     0          
O        O      0.899900000000     0.060350000000     0.274300000000     0          
O        O      0.847800000000     0.049150000000     0.329750000000     0          
O        O      0.886650000000     0.000000000000     0.304050000000     0          
O        O      0.939050000000     0.150050000000     0.459400000000     0          
O        O      0.907400000000     0.157400000000     0.375000000000     0          
O        O      0.874150000000     0.148800000000     0.457700000000     0          
O        O      0.500000000000     0.147600000000     0.492750000000     0          
O        O      0.957650000000     0.189300000000     0.031900000000     0          
O        O      0.809100000000     0.000000000000     0.304400000000     0          
O        O      0.790900000000     0.040900000000     0.375000000000     0          
O        O      0.956200000000     0.000000000000     0.014500000000     0          
T        Si     0.907100000000     0.060150000000     0.423200000000     0          
T        Si     0.885400000000     0.038400000000     0.319100000000     0          
T        Si     0.907150000000     0.138950000000     0.428050000000     0          
T        Si     0.962000000000     0.153150000000     0.008000000000     0          
T        Si     0.810050000000     0.037800000000     0.322800000000     0          
T        Si     0.961900000000     0.038100000000     0.000000000000     0          
T        Si     0.903500000000     0.096500000000     0.250000000000     0          
O        O      0.952500000000     0.061000000000     0.046750000000     0          
O        O      0.951200000000     0.125800000000     0.048100000000     0          
O        O      0.955600000000     0.092800000000     0.131700000000     0          
O        O      0.900300000000     0.092000000000     0.080750000000     0          
O        O      0.939650000000     0.100100000000     0.225700000000     0          
O        O      0.950850000000     0.152200000000     0.170250000000     0          
O        O      0.849950000000     0.060950000000     0.040600000000     0          
O        O      0.842600000000     0.092600000000     0.125000000000     0          
O        O      0.851200000000     0.125850000000     0.042300000000     0          
O        O      0.810700000000     0.042350000000     0.468100000000     0          
O        O      0.959100000000     0.209100000000     0.125000000000     0          
T        Si     0.939850000000     0.092900000000     0.076800000000     0          
T        Si     0.961600000000     0.114600000000     0.180900000000     0          
T        Si     0.861050000000     0.092850000000     0.071950000000     0          
T        Si     0.846850000000     0.038000000000     0.492000000000     0          
T        Si     0.962200000000     0.189950000000     0.177200000000     0          
O        O      0.561000000000     0.047500000000     0.453250000000     0          
O        O      0.625800000000     0.048800000000     0.451900000000     0          
O        O      0.592800000000     0.044400000000     0.368300000000     0          
O        O      0.592000000000     0.099700000000     0.419250000000     0          
O        O      0.600100000000     0.060350000000     0.274300000000     0          
O        O      0.652200000000     0.049150000000     0.329750000000     0          
O        O      0.560950000000     0.150050000000     0.459400000000     0          
O        O      0.592600000000     0.157400000000     0.375000000000     0          
O        O      0.625850000000     0.148800000000     0.457700000000     0          
O        O      0.542350000000     0.189300000000     0.031900000000     0          
O        O      0.709100000000     0.040900000000     0.375000000000     0          
T        Si     0.592900000000     0.060150000000     0.423200000000     0          
T        Si     0.614600000000     0.038400000000     0.319100000000     0          
T        Si     0.592850000000     0.138950000000     0.428050000000     0          
T        Si     0.538000000000     0.153150000000     0.008000000000     0          
T        Si     0.689950000000     0.037800000000     0.322800000000     0          
O        O      0.547500000000     0.439000000000     0.046750000000     0          
O        O      0.548800000000     0.374200000000     0.048100000000     0          
O        O      0.544400000000     0.407200000000     0.131700000000     0          
O        O      0.599700000000     0.408000000000     0.080750000000     0          
O        O      0.560350000000     0.399900000000     0.225700000000     0          
O        O      0.549150000000     0.347800000000     0.170250000000     0          
O        O      0.650050000000     0.439050000000     0.040600000000     0          
O        O      0.657400000000     0.407400000000     0.125000000000     0          
O        O      0.648800000000     0.374150000000     0.042300000000     0          
O        O      0.689300000000     0.457650000000     0.468100000000     0          
O        O      0.540900000000     0.290900000000     0.125000000000     0          
T        Si     0.560150000000     0.407100000000     0.076800000000     0          
T        Si     0.538400000000     0.385400000000     0.180900000000     0          
T        Si     0.638950000000     0.407150000000     0.071950000000     0          
T        Si     0.653150000000     0.462000000000     0.492000000000     0          
T        Si     0.537800000000     0.310050000000     0.177200000000     0          
O        O      0.939000000000     0.452500000000     0.453250000000     0          
O        O      0.874200000000     0.451200000000     0.451900000000     0          
O        O      0.907200000000     0.455600000000     0.368300000000     0          
O        O      0.908000000000     0.400300000000     0.419250000000     0          
O        O      0.899900000000     0.439650000000     0.274300000000     0          
O        O      0.847800000000     0.450850000000     0.329750000000     0          
O        O      0.939050000000     0.349950000000     0.459400000000     0          
O        O      0.907400000000     0.342600000000     0.375000000000     0          
O        O      0.874150000000     0.351200000000     0.457700000000     0          
O        O      0.957650000000     0.310700000000     0.031900000000     0          
O        O      0.790900000000     0.459100000000     0.375000000000     0          
T        Si     0.907100000000     0.439850000000     0.423200000000     0          
T        Si     0.885400000000     0.461600000000     0.319100000000     0          
T        Si     0.907150000000     0.361050000000     0.428050000000     0          
T        Si     0.962000000000     0.346850000000     0.008000000000     0          
T        Si     0.810050000000     0.462200000000     0.322800000000     0          
O        O      0.797500000000     0.311000000000     0.296750000000     0          
O        O      0.798800000000     0.375800000000     0.298100000000     0          
O        O      0.794400000000     0.342800000000     0.381700000000     0          
O        O      0.849700000000     0.342000000000     0.330750000000     0          
O        O      0.810350000000     0.350100000000     0.475700000000     0          
O        O      0.799150000000     0.402200000000     0.420250000000     0          
O        O      0.750000000000     0.363350000000     0.445950000000     0          
O        O      0.900050000000     0.310950000000     0.290600000000     0          
O        O      0.898800000000     0.375850000000     0.292300000000     0          
O        O      0.897600000000     0.250000000000     0.257250000000     0          
O        O      0.939300000000     0.292350000000     0.218100000000     0          
O        O      0.750000000000     0.440900000000     0.445600000000     0          
O        O      0.750000000000     0.293800000000     0.235500000000     0          
T        Si     0.810150000000     0.342900000000     0.326800000000     0          
T        Si     0.788400000000     0.364600000000     0.430900000000     0          
T        Si     0.888950000000     0.342850000000     0.321950000000     0          
T        Si     0.903150000000     0.288000000000     0.242000000000     0          
T        Si     0.787800000000     0.439950000000     0.427200000000     0          
T        Si     0.788100000000     0.288100000000     0.250000000000     0          
T        Si     0.846500000000     0.346500000000     0.000000000000     0          
O        O      0.811000000000     0.202500000000     0.203250000000     0          
O        O      0.875800000000     0.201200000000     0.201900000000     0          
O        O      0.842800000000     0.205600000000     0.118300000000     0          
O        O      0.842000000000     0.150300000000     0.169250000000     0          
O        O      0.850100000000     0.189650000000     0.024300000000     0          
O        O      0.902200000000     0.200850000000     0.079750000000     0          
O        O      0.863350000000     0.250000000000     0.054050000000     0          
O        O      0.810950000000     0.099950000000     0.209400000000     0          
O        O      0.875850000000     0.101200000000     0.207700000000     0          
O        O      0.750000000000     0.102400000000     0.242750000000     0          
O        O      0.792350000000     0.060700000000     0.281900000000     0          
O        O      0.940900000000     0.250000000000     0.054400000000     0          
O        O      0.793800000000     0.250000000000     0.264500000000     0          
T        Si     0.842900000000     0.189850000000     0.173200000000     0          
T        Si     0.864600000000     0.211600000000     0.069100000000     0          
T        Si     0.842850000000     0.111050000000     0.178050000000     0          
T        Si     0.788000000000     0.096850000000     0.258000000000     0          
T        Si     0.939950000000     0.212200000000     0.072800000000     0          
T        Si     0.788100000000     0.211900000000     0.250000000000     0          
T        Si     0.846500000000     0.153500000000     0.000000000000     0          
O        O      0.702500000000     0.189000000000     0.296750000000     0          
O        O      0.701200000000     0.124200000000     0.298100000000     0          
O        O      0.705600000000     0.157200000000     0.381700000000     0          
O        O      0.650300000000     0.158000000000     0.330750000000     0          
O        O      0.689650000000     0.149900000000     0.475700000000     0          
O        O      0.700850000000     0.097800000000     0.420250000000     0          
O        O      0.750000000000     0.136650000000     0.445950000000     0          
O        O      0.599950000000     0.189050000000     0.290600000000     0          
O        O      0.601200000000     0.124150000000     0.292300000000     0          
O        O      0.602400000000     0.250000000000     0.257250000000     0          
O        O      0.560700000000     0.207650000000     0.218100000000     0          
O        O      0.750000000000     0.059100000000     0.445600000000     0          
O        O      0.750000000000     0.206200000000     0.235500000000     0          
T        Si     0.689850000000     0.157100000000     0.326800000000     0          
T        Si     0.711600000000     0.135400000000     0.430900000000     0          
T        Si     0.611050000000     0.157150000000     0.321950000000     0          
T        Si     0.596850000000     0.212000000000     0.242000000000     0          
T        Si     0.712200000000     0.060050000000     0.427200000000     0          
T        Si     0.711900000000     0.211900000000     0.250000000000     0          
T        Si     0.653500000000     0.153500000000     0.000000000000     0          
O        O      0.689000000000     0.297500000000     0.203250000000     0          
O        O      0.624200000000     0.298800000000     0.201900000000     0          
O        O      0.657200000000     0.294400000000     0.118300000000     0          
O        O      0.658000000000     0.349700000000     0.169250000000     0          
O        O      0.649900000000     0.310350000000     0.024300000000     0          
O        O      0.597800000000     0.299150000000     0.079750000000     0          
O        O      0.636650000000     0.250000000000     0.054050000000     0          
O        O      0.689050000000     0.400050000000     0.209400000000     0          
O        O      0.624150000000     0.398800000000     0.207700000000     0          
O        O      0.750000000000     0.397600000000     0.242750000000     0          
O        O      0.707650000000     0.439300000000     0.281900000000     0          
O        O      0.559100000000     0.250000000000     0.054400000000     0          
O        O      0.706200000000     0.250000000000     0.264500000000     0          
T        Si     0.657100000000     0.310150000000     0.173200000000     0          
T        Si     0.635400000000     0.288400000000     0.069100000000     0          
T        Si     0.657150000000     0.388950000000     0.178050000000     0          
T        Si     0.712000000000     0.403150000000     0.258000000000     0          
T        Si     0.560050000000     0.287800000000     0.072800000000     0          
T        Si     0.711900000000     0.288100000000     0.250000000000     0          
T        Si     0.653500000000     0.346500000000     0.000000000000     0          
O        O      0.702500000000     0.311000000000     0.296750000000     0          
O        O      0.701200000000     0.375800000000     0.298100000000     0          
O        O      0.705600000000     0.342800000000     0.381700000000     0          
O        O      0.650300000000     0.342000000000     0.330750000000     0          
O        O      0.689650000000     0.350100000000     0.475700000000     0          
O        O      0.700850000000     0.402200000000     0.420250000000     0          
O        O      0.599950000000     0.310950000000     0.290600000000     0          
O        O      0.601200000000     0.375850000000     0.292300000000     0          
O        O      0.560700000000     0.292350000000     0.218100000000     0          
T        Si     0.689850000000     0.342900000000     0.326800000000     0          
T        Si     0.711600000000     0.364600000000     0.430900000000     0          
T        Si     0.611050000000     0.342850000000     0.321950000000     0          
T        Si     0.596850000000     0.288000000000     0.242000000000     0          
T        Si     0.712200000000     0.439950000000     0.427200000000     0          
O        O      0.811000000000     0.297500000000     0.203250000000     0          
O        O      0.875800000000     0.298800000000     0.201900000000     0          
O        O      0.842800000000     0.294400000000     0.118300000000     0          
O        O      0.842000000000     0.349700000000     0.169250000000     0          
O        O      0.850100000000     0.310350000000     0.024300000000     0          
O        O      0.902200000000     0.299150000000     0.079750000000     0          
O        O      0.810950000000     0.400050000000     0.209400000000     0          
O        O      0.875850000000     0.398800000000     0.207700000000     0          
O        O      0.792350000000     0.439300000000     0.281900000000     0          
T        Si     0.842900000000     0.310150000000     0.173200000000     0          
T        Si     0.864600000000     0.288400000000     0.069100000000     0          
T        Si     0.842850000000     0.388950000000     0.178050000000     0          
T        Si     0.788000000000     0.403150000000     0.258000000000     0          
T        Si     0.939950000000     0.287800000000     0.072800000000     0          
O        O      0.797500000000     0.189000000000     0.296750000000     0          
O        O      0.798800000000     0.124200000000     0.298100000000     0          
O        O      0.794400000000     0.157200000000     0.381700000000     0          
O        O      0.849700000000     0.158000000000     0.330750000000     0          
O        O      0.810350000000     0.149900000000     0.475700000000     0          
O        O      0.799150000000     0.097800000000     0.420250000000     0          
O        O      0.900050000000     0.189050000000     0.290600000000     0          
O        O      0.898800000000     0.124150000000     0.292300000000     0          
O        O      0.939300000000     0.207650000000     0.218100000000     0          
T        Si     0.810150000000     0.157100000000     0.326800000000     0          
T        Si     0.788400000000     0.135400000000     0.430900000000     0          
T        Si     0.888950000000     0.157150000000     0.321950000000     0          
T        Si     0.903150000000     0.212000000000     0.242000000000     0          
T        Si     0.787800000000     0.060050000000     0.427200000000     0          
O        O      0.689000000000     0.202500000000     0.203250000000     0          
O        O      0.624200000000     0.201200000000     0.201900000000     0          
O        O      0.657200000000     0.205600000000     0.118300000000     0          
O        O      0.658000000000     0.150300000000     0.169250000000     0          
O        O      0.649900000000     0.189650000000     0.024300000000     0          
O        O      0.597800000000     0.200850000000     0.079750000000     0          
O        O      0.689050000000     0.099950000000     0.209400000000     0          
O        O      0.624150000000     0.101200000000     0.207700000000     0          
O        O      0.707650000000     0.060700000000     0.281900000000     0          
T        Si     0.657100000000     0.189850000000     0.173200000000     0          
T        Si     0.635400000000     0.211600000000     0.069100000000     0          
T        Si     0.657150000000     0.111050000000     0.178050000000     0          
T        Si     0.712000000000     0.096850000000     0.258000000000     0          
T        Si     0.560050000000     0.212200000000     0.072800000000     0          
O        O      0.547500000000     0.061000000000     0.546750000000     0          
O        O      0.548800000000     0.125800000000     0.548100000000     0          
O        O      0.544400000000     0.092800000000     0.631700000000     0          
O        O      0.599700000000     0.092000000000     0.580750000000     0          
O        O      0.560350000000     0.100100000000     0.725700000000     0          
O        O      0.549150000000     0.152200000000     0.670250000000     0          
O        O      0.500000000000     0.113350000000     0.695950000000     0          
O        O      0.650050000000     0.060950000000     0.540600000000     0          
O        O      0.657400000000     0.092600000000     0.625000000000     0          
O        O      0.648800000000     0.125850000000     0.542300000000     0          
O        O      0.647600000000     0.000000000000     0.507250000000     0          
O        O      0.689300000000     0.042350000000     0.968100000000     0          
O        O      0.500000000000     0.190900000000     0.695600000000     0          
O        O      0.540900000000     0.209100000000     0.625000000000     0          
O        O      0.500000000000     0.043800000000     0.985500000000     0          
T        Si     0.560150000000     0.092900000000     0.576800000000     0          
T        Si     0.538400000000     0.114600000000     0.680900000000     0          
T        Si     0.638950000000     0.092850000000     0.571950000000     0          
T        Si     0.653150000000     0.038000000000     0.992000000000     0          
T        Si     0.537800000000     0.189950000000     0.677200000000     0          
T        Si     0.538100000000     0.038100000000     0.500000000000     0          
T        Si     0.596500000000     0.096500000000     0.750000000000     0          
O        O      0.561000000000     0.452500000000     0.953250000000     0          
O        O      0.625800000000     0.451200000000     0.951900000000     0          
O        O      0.592800000000     0.455600000000     0.868300000000     0          
O        O      0.592000000000     0.400300000000     0.919250000000     0          
O        O      0.600100000000     0.439650000000     0.774300000000     0          
O        O      0.652200000000     0.450850000000     0.829750000000     0          
O        O      0.613350000000     0.000000000000     0.804050000000     0          
O        O      0.560950000000     0.349950000000     0.959400000000     0          
O        O      0.592600000000     0.342600000000     0.875000000000     0          
O        O      0.625850000000     0.351200000000     0.957700000000     0          
O        O      0.500000000000     0.352400000000     0.992750000000     0          
O        O      0.542350000000     0.310700000000     0.531900000000     0          
O        O      0.690900000000     0.000000000000     0.804400000000     0          
O        O      0.709100000000     0.459100000000     0.875000000000     0          
O        O      0.543800000000     0.000000000000     0.514500000000     0          
T        Si     0.592900000000     0.439850000000     0.923200000000     0          
T        Si     0.614600000000     0.461600000000     0.819100000000     0          
T        Si     0.592850000000     0.361050000000     0.928050000000     0          
T        Si     0.538000000000     0.346850000000     0.508000000000     0          
T        Si     0.689950000000     0.462200000000     0.822800000000     0          
T        Si     0.538100000000     0.461900000000     0.500000000000     0          
T        Si     0.596500000000     0.403500000000     0.750000000000     0          
O        O      0.952500000000     0.439000000000     0.546750000000     0          
O        O      0.951200000000     0.374200000000     0.548100000000     0          
O        O      0.955600000000     0.407200000000     0.631700000000     0          
O        O      0.900300000000     0.408000000000     0.580750000000     0          
O        O      0.939650000000     0.399900000000     0.725700000000     0          
O        O      0.950850000000     0.347800000000     0.670250000000     0          
O        O      0.500000000000     0.386650000000     0.695950000000     0          
O        O      0.849950000000     0.439050000000     0.540600000000     0          
O        O      0.842600000000     0.407400000000     0.625000000000     0          
O        O      0.851200000000     0.374150000000     0.542300000000     0          
O        O      0.852400000000     0.000000000000     0.507250000000     0          
O        O      0.810700000000     0.457650000000     0.968100000000     0          
O        O      0.500000000000     0.309100000000     0.695600000000     0          
O        O      0.959100000000     0.290900000000     0.625000000000     0          
O        O      0.500000000000     0.456200000000     0.985500000000     0          
T        Si     0.939850000000     0.407100000000     0.576800000000     0          
T        Si     0.961600000000     0.385400000000     0.680900000000     0          
T        Si     0.861050000000     0.407150000000     0.571950000000     0          
T        Si     0.846850000000     0.462000000000     0.992000000000     0          
T        Si     0.962200000000     0.310050000000     0.677200000000     0          
T        Si     0.961900000000     0.461900000000     0.500000000000     0          
T        Si     0.903500000000     0.403500000000     0.750000000000     0          
O        O      0.939000000000     0.047500000000     0.953250000000     0          
O        O      0.874200000000     0.048800000000     0.951900000000     0          
O        O      0.907200000000     0.044400000000     0.868300000000     0          
O        O      0.908000000000     0.099700000000     0.919250000000     0          
O        O      0.899900000000     0.060350000000     0.774300000000     0          
O        O      0.847800000000     0.049150000000     0.829750000000     0          
O        O      0.886650000000     0.000000000000     0.804050000000     0          
O        O      0.939050000000     0.150050000000     0.959400000000     0          
O        O      0.907400000000     0.157400000000     0.875000000000     0          
O        O      0.874150000000     0.148800000000     0.957700000000     0          
O        O      0.500000000000     0.147600000000     0.992750000000     0          
O        O      0.957650000000     0.189300000000     0.531900000000     0          
O        O      0.809100000000     0.000000000000     0.804400000000     0          
O        O      0.790900000000     0.040900000000     0.875000000000     0          
O        O      0.956200000000     0.000000000000     0.514500000000     0          
T        Si     0.907100000000     0.060150000000     0.923200000000     0          
T        Si     0.885400000000     0.038400000000     0.819100000000     0          
T        Si     0.907150000000     0.138950000000     0.928050000000     0          
T        Si     0.962000000000     0.153150000000     0.508000000000     0          
T        Si     0.810050000000     0.037800000000     0.822800000000     0          
T        Si     0.961900000000     0.038100000000     0.500000000000     0          
T        Si     0.903500000000     0.096500000000     0.750000000000     0          
O        O      0.952500000000     0.061000000000     0.546750000000     0          
O        O      0.951200000000     0.125800000000     0.548100000000     0          
O        O      0.955600000000     0.092800000000     0.631700000000     0          
O        O      0.900300000000     0.092000000000     0.580750000000     0          
O        O      0.939650000000     0.100100000000     0.725700000000     0          
O        O      0.950850000000     0.152200000000     0.670250000000     0          
O        O      0.849950000000     0.060950000000     0.540600000000     0          
O        O      0.842600000000     0.092600000000     0.625000000000     0          
O        O      0.851200000000     0.125850000000     0.542300000000     0          
O        O      0.810700000000     0.042350000000     0.968100000000     0          
O        O      0.959100000000     0.209100000000     0.625000000000     0          
T        Si     0.939850000000     0.092900000000     0.576800000000     0          
T        Si     0.961600000000     0.114600000000     0.680900000000     0          
T        Si     0.861050000000     0.092850000000     0.571950000000     0          
T        Si     0.846850000000     0.038000000000     0.992000000000     0          
T        Si     0.962200000000     0.189950000000     0.677200000000     0          
O        O      0.561000000000     0.047500000000     0.953250000000     0          
O        O      0.625800000000     0.048800000000     0.951900000000     0          
O        O      0.592800000000     0.044400000000     0.868300000000     0          
O        O      0.592000000000     0.099700000000     0.919250000000     0          
O        O      0.600100000000     0.060350000000     0.774300000000     0          
O        O      0.652200000000     0.049150000000     0.829750000000     0          
O        O      0.560950000000     0.150050000000     0.959400000000     0          
O        O      0.592600000000     0.157400000000     0.875000000000     0          
O        O      0.625850000000     0.148800000000     0.957700000000     0          
O        O      0.542350000000     0.189300000000     0.531900000000     0          
O        O      0.709100000000     0.040900000000     0.875000000000     0          
T        Si     0.592900000000     0.060150000000     0.923200000000     0          
T        Si     0.614600000000     0.038400000000     0.819100000000     0          
T        Si     0.592850000000     0.138950000000     0.928050000000     0          
T        Si     0.538000000000     0.153150000000     0.508000000000     0          
T        Si     0.689950000000     0.037800000000     0.822800000000     0          
O        O      0.547500000000     0.439000000000     0.546750000000     0          
O        O      0.548800000000     0.374200000000     0.548100000000     0          
O        O      0.544400000000     0.407200000000     0.631700000000     0          
O        O      0.599700000000     0.408000000000     0.580750000000     0          
O        O      0.560350000000     0.399900000000     0.725700000000     0          
O        O      0.549150000000     0.347800000000     0.670250000000     0          
O        O      0.650050000000     0.439050000000     0.540600000000     0          
O        O      0.657400000000     0.407400000000     0.625000000000     0          
O        O      0.648800000000     0.374150000000     0.542300000000     0          
O        O      0.689300000000     0.457650000000     0.968100000000     0          
O        O      0.540900000000     0.290900000000     0.625000000000     0          
T        Si     0.560150000000     0.407100000000     0.576800000000     0          
T        Si     0.538400000000     0.385400000000     0.680900000000     0          
T        Si     0.638950000000     0.407150000000     0.571950000000     0          
T        Si     0.653150000000     0.462000000000     0.992000000000     0          
T        Si     0.537800000000     0.310050000000     0.677200000000     0          
O        O      0.939000000000     0.452500000000     0.953250000000     0          
O        O      0.874200000000     0.451200000000     0.951900000000     0          
O        O      0.907200000000     0.455600000000     0.868300000000     0          
O        O      0.908000000000     0.400300000000     0.919250000000     0          
O        O      0.899900000000     0.439650000000     0.774300000000     0          
O        O      0.847800000000     0.450850000000     0.829750000000     0          
O        O      0.939050000000     0.349950000000     0.959400000000     0          
O        O      0.907400000000     0.342600000000     0.875000000000     0          
O        O      0.874150000000     0.351200000000     0.957700000000     0          
O        O      0.957650000000     0.310700000000     0.531900000000     0          
O        O      0.790900000000     0.459100000000     0.875000000000     0          
T        Si     0.907100000000     0.439850000000     0.923200000000     0          
T        Si     0.885400000000     0.461600000000     0.819100000000     0          
T        Si     0.907150000000     0.361050000000     0.928050000000     0          
T        Si     0.962000000000     0.346850000000     0.508000000000     0          
T        Si     0.810050000000     0.462200000000     0.822800000000     0          
O        O      0.797500000000     0.311000000000     0.796750000000     0          
O        O      0.798800000000     0.375800000000     0.798100000000     0          
O        O      0.794400000000     0.342800000000     0.881700000000     0          
O        O      0.849700000000     0.342000000000     0.830750000000     0          
O        O      0.810350000000     0.350100000000     0.975700000000     0          
O        O      0.799150000000     0.402200000000     0.920250000000     0          
O        O      0.750000000000     0.363350000000     0.945950000000     0          
O        O      0.900050000000     0.310950000000     0.790600000000     0          
O        O      0.898800000000     0.375850000000     0.792300000000     0          
O        O      0.897600000000     0.250000000000     0.757250000000     0          
O        O      0.939300000000     0.292350000000     0.718100000000     0          
O        O      0.750000000000     0.440900000000     0.945600000000     0          
O        O      0.750000000000     0.293800000000     0.735500000000     0          
T        Si     0.810150000000     0.342900000000     0.826800000000     0          
T        Si     0.788400000000     0.364600000000     0.930900000000     0          
T        Si     0.888950000000     0.342850000000     0.821950000000     0          
T        Si     0.903150000000     0.288000000000     0.742000000000     0          
T        Si     0.787800000000     0.439950000000     0.927200000000     0          
T        Si     0.788100000000     0.288100000000     0.750000000000     0          
T        Si     0.846500000000     0.346500000000     0.500000000000     0          
O        O      0.811000000000     0.202500000000     0.703250000000     0          
O        O      0.875800000000     0.201200000000     0.701900000000     0          
O        O      0.842800000000     0.205600000000     0.618300000000     0          
O        O      0.842000000000     0.150300000000     0.669250000000     0          
O        O      0.850100000000     0.189650000000     0.524300000000     0          
O        O      0.902200000000     0.200850000000     0.579750000000     0          
O        O      0.863350000000     0.250000000000     0.554050000000     0          
O        O      0.810950000000     0.099950000000     0.709400000000     0          
O        O      0.875850000000     0.101200000000     0.707700000000     0          
O        O      0.750000000000     0.102400000000     0.742750000000     0          
O        O      0.792350000000     0.060700000000     0.781900000000     0          
O        O      0.940900000000     0.250000000000     0.554400000000     0          
O        O      0.793800000000     0.250000000000     0.764500000000     0          
T        Si     0.842900000000     0.189850000000     0.673200000000     0          
T        Si     0.864600000000     0.211600000000     0.569100000000     0          
T        Si     0.842850000000     0.111050000000     0.678050000000     0          
T        Si     0.788000000000     0.096850000000     0.758000000000     0          
T        Si     0.939950000000     0.212200000000     0.572800000000     0          
T        Si     0.788100000000     0.211900000000     0.750000000000     0          
T        Si     0.846500000000     0.153500000000     0.500000000000     0          
O        O      0.702500000000     0.189000000000     0.796750000000     0          
O        O      0.701200000000     0.124200000000     0.798100000000     0          
O        O      0.705600000000     0.157200000000     0.881700000000     0          
O        O      0.650300000000     0.158000000000     0.830750000000     0          
O        O      0.689650000000     0.149900000000     0.975700000000     0          
O        O      0.700850000000     0.097800000000     0.920250000000     0          
O        O      0.750000000000     0.136650000000     0.945950000000     0          
O        O      0.599950000000     0.189050000000     0.790600000000     0          
O        O      0.601200000000     0.124150000000     0.792300000000     0          
O        O      0.602400000000     0.250000000000     0.757250000000     0          
O        O      0.560700000000     0.207650000000     0.718100000000     0          
O        O      0.750000000000     0.059100000000     0.945600000000     0          
O        O      0.750000000000     0.206200000000     0.735500000000     0          
T        Si     0.689850000000     0.157100000000     0.826800000000     0          
T        Si     0.711600000000     0.135400000000     0.930900000000     0          
T        Si     0.611050000000     0.157150000000     0.821950000000     0          
T        Si     0.596850000000     0.212000000000     0.742000000000     0          
T        Si     0.712200000000     0.060050000000     0.927200000000     0          
T        Si     0.711900000000     0.211900000000     0.750000000000     0          
T        Si     0.653500000000     0.153500000000     0.500000000000     0          
O        O      0.689000000000     0.297500000000     0.703250000000     0          
O        O      0.624200000000     0.298800000000     0.701900000000     0          
O        O      0.657200000000     0.294400000000     0.618300000000     0          
O        O      0.658000000000     0.349700000000     0.669250000000     0          
O        O      0.649900000000     0.310350000000     0.524300000000     0          
O        O      0.597800000000     0.299150000000     0.579750000000     0          
O        O      0.636650000000     0.250000000000     0.554050000000     0          
O        O      0.689050000000     0.400050000000     0.709400000000     0          
O        O      0.624150000000     0.398800000000     0.707700000000     0          
O        O      0.750000000000     0.397600000000     0.742750000000     0          
O        O      0.707650000000     0.439300000000     0.781900000000     0          
O        O      0.559100000000     0.250000000000     0.554400000000     0          
O        O      0.706200000000     0.250000000000     0.764500000000     0          
T        Si     0.657100000000     0.310150000000     0.673200000000     0          
T        Si     0.635400000000     0.288400000000     0.569100000000     0          
T        Si     0.657150000000     0.388950000000     0.678050000000     0          
T        Si     0.712000000000     0.403150000000     0.758000000000     0          
T        Si     0.560050000000     0.287800000000     0.572800000000     0          
T        Si     0.711900000000     0.288100000000     0.750000000000     0          
T        Si     0.653500000000     0.346500000000     0.500000000000     0          
O        O      0.702500000000     0.311000000000     0.796750000000     0          
O        O      0.701200000000     0.375800000000     0.798100000000     0          
O        O      0.705600000000     0.342800000000     0.881700000000     0          
O        O      0.650300000000     0.342000000000     0.830750000000     0          
O        O      0.689650000000     0.350100000000     0.975700000000     0          
O        O      0.700850000000     0.402200000000     0.920250000000     0          
O        O      0.599950000000     0.310950000000     0.790600000000     0          
O        O      0.601200000000     0.375850000000     0.792300000000     0          
O        O      0.560700000000     0.292350000000     0.718100000000     0          
T        Si     0.689850000000     0.342900000000     0.826800000000     0          
T        Si     0.711600000000     0.364600000000     0.930900000000     0          
T        Si     0.611050000000     0.342850000000     0.821950000000     0          
T        Si     0.596850000000     0.288000000000     0.742000000000     0          
T        Si     0.712200000000     0.439950000000     0.927200000000     0          
O        O      0.811000000000     0.297500000000     0.703250000000     0          
O        O      0.875800000000     0.298800000000     0.701900000000     0          
O        O      0.842800000000     0.294400000000     0.618300000000     0          
O        O      0.842000000000     0.349700000000     0.669250000000     0          
O        O      0.850100000000     0.310350000000     0.524300000000     0          
O        O      0.902200000000     0.299150000000     0.579750000000     0          
O        O      0.810950000000     0.400050000000     0.709400000000     0          
O        O      0.875850000000     0.398800000000     0.707700000000     0          
O        O      0.792350000000     0.439300000000     0.781900000000     0          
T        Si     0.842900000000     0.310150000000     0.673200000000     0          
T        Si     0.864600000000     0.288400000000     0.569100000000     0          
T        Si     0.842850000000     0.388950000000     0.678050000000     0          
T        Si     0.788000000000     0.403150000000     0.758000000000     0          
T        Si     0.939950000000     0.287800000000     0.572800000000     0          
O        O      0.797500000000     0.189000000000     0.796750000000     0          
O        O      0.798800000000     0.124200000000     0.798100000000     0          
O        O      0.794400000000     0.157200000000     0.881700000000     0          
O        O      0.849700000000     0.158000000000     0.830750000000     0          
O        O      0.810350000000     0.149900000000     0.975700000000     0          
O        O      0.799150000000     0.097800000000     0.920250000000     0          
O        O      0.900050000000     0.189050000000     0.790600000000     0          
O        O      0.898800000000     0.124150000000     0.792300000000     0          
O        O      0.939300000000     0.207650000000     0.718100000000     0          
T        Si     0.810150000000     0.157100000000     0.826800000000     0          
T        Si     0.788400000000     0.135400000000     0.930900000000     0          
T        Si     0.888950000000     0.157150000000     0.821950000000     0          
T        Si     0.903150000000     0.212000000000     0.742000000000     0          
T        Si     0.787800000000     0.060050000000     0.927200000000     0          
O        O      0.689000000000     0.202500000000     0.703250000000     0          
O        O      0.624200000000     0.201200000000     0.701900000000     0          
O        O      0.657200000000     0.205600000000     0.618300000000     0          
O        O      0.658000000000     0.150300000000     0.669250000000     0          
O        O      0.649900000000     0.189650000000     0.524300000000     0          
O        O      0.597800000000     0.200850000000     0.579750000000     0          
O        O      0.689050000000     0.099950000000     0.709400000000     0          
O        O      0.624150000000     0.101200000000     0.707700000000     0          
O        O      0.707650000000     0.060700000000     0.781900000000     0          
T        Si     0.657100000000     0.189850000000     0.673200000000     0          
T        Si     0.635400000000     0.211600000000     0.569100000000     0          
T        Si     0.657150000000     0.111050000000     0.678050000000     0          
T        Si     0.712000000000     0.096850000000     0.758000000000     0          
T        Si     0.560050000000     0.212200000000     0.572800000000     0          
O        O      0.547500000000     0.561000000000     0.046750000000     0          
O        O      0.548800000000     0.625800000000     0.048100000000     0          
O        O      0.544400000000     0.592800000000     0.131700000000     0          
O        O      0.599700000000     0.592000000000     0.080750000000     0          
O        O      0.560350000000     0.600100000000     0.225700000000     0          
O        O      0.549150000000     0.652200000000     0.170250000000     0          
O        O      0.500000000000     0.613350000000     0.195950000000     0          
O        O      0.650050000000     0.560950000000     0.040600000000     0          
O        O      0.657400000000     0.592600000000     0.125000000000     0          
O        O      0.648800000000     0.625850000000     0.042300000000     0          
O        O      0.647600000000     0.500000000000     0.007250000000     0          
O        O      0.689300000000     0.542350000000     0.468100000000     0          
O        O      0.500000000000     0.690900000000     0.195600000000     0          
O        O      0.540900000000     0.709100000000     0.125000000000     0          
O        O      0.500000000000     0.543800000000     0.485500000000     0          
T        Si     0.560150000000     0.592900000000     0.076800000000     0          
T        Si     0.538400000000     0.614600000000     0.180900000000     0          
T        Si     0.638950000000     0.592850000000     0.071950000000     0          
T        Si     0.653150000000     0.538000000000     0.492000000000     0          
T        Si     0.537800000000     0.689950000000     0.177200000000     0          
T        Si     0.538100000000     0.538100000000     0.000000000000     0          
T        Si     0.596500000000     0.596500000000     0.250000000000     0          
O        O      0.561000000000     0.952500000000     0.453250000000     0          
O        O      0.625800000000     0.951200000000     0.451900000000     0          
O        O      0.592800000000     0.955600000000     0.368300000000     0          
O        O      0.592000000000     0.900300000000     0.419250000000     0          
O        O      0.600100000000     0.939650000000     0.274300000000     0          
O        O      0.652200000000     0.950850000000     0.329750000000     0          
O        O      0.613350000000     0.500000000000     0.304050000000     0          
O        O      0.560950000000     0.849950000000     0.459400000000     0          
O        O      0.592600000000     0.842600000000     0.375000000000     0          
O        O      0.625850000000     0.851200000000     0.457700000000     0          
O        O      0.500000000000     0.852400000000     0.492750000000     0          
O        O      0.542350000000     0.810700000000     0.031900000000     0          
O        O      0.690900000000     0.500000000000     0.304400000000     0          
O        O      0.709100000000     0.959100000000     0.375000000000     0          
O        O      0.543800000000     0.500000000000     0.014500000000     0          
T        Si     0.592900000000     0.939850000000     0.423200000000     0          
T        Si     0.614600000000     0.961600000000     0.319100000000     0          
T        Si     0.592850000000     0.861050000000     0.428050000000     0          
T        Si     0.538000000000     0.846850000000     0.008000000000     0          
T        Si     0.689950000000     0.962200000000     0.322800000000     0          
T        Si     0.538100000000     0.961900000000     0.000000000000     0          
T        Si     0.596500000000     0.903500000000     0.250000000000     0          
O        O      0.952500000000     0.939000000000     0.046750000000     0          
O        O      0.951200000000     0.874200000000     0.048100000000     0          
O        O      0.955600000000     0.907200000000     0.131700000000     0          
O        O      0.900300000000     0.908000000000     0.080750000000     0          
O        O      0.939650000000     0.899900000000     0.225700000000     0          
O        O      0.950850000000     0.847800000000     0.170250000000     0          
O        O      0.500000000000     0.886650000000     0.195950000000     0          
O        O      0.849950000000     0.939050000000     0.040600000000     0          
O        O      0.842600000000     0.907400000000     0.125000000000     0          
O        O      0.851200000000     0.874150000000     0.042300000000     0          
O        O      0.852400000000     0.500000000000     0.007250000000     0          
O        O      0.810700000000     0.957650000000     0.468100000000     0          
O        O      0.500000000000     0.809100000000     0.195600000000     0          
O        O      0.959100000000     0.790900000000     0.125000000000     0          
O        O      0.500000000000     0.956200000000     0.485500000000     0          
T        Si     0.939850000000     0.907100000000     0.076800000000     0          
T        Si     0.961600000000     0.885400000000     0.180900000000     0          
T        Si     0.861050000000     0.907150000000     0.071950000000     0          
T        Si     0.846850000000     0.962000000000     0.492000000000     0          
T        Si     0.962200000000     0.810050000000     0.177200000000     0          
T        Si     0.961900000000     0.961900000000     0.000000000000     0          
T        Si     0.903500000000     0.903500000000     0.250000000000     0          
O        O      0.939000000000     0.547500000000     0.453250000000     0          
O        O      0.874200000000     0.548800000000     0.451900000000     0          
O        O      0.907200000000     0.544400000000     0.368300000000     0          
O        O      0.908000000000     0.599700000000     0.419250000000     0          
O        O      0.899900000000     0.560350000000     0.274300000000     0          
O        O      0.847800000000     0.549150000000     0.329750000000     0          
O        O      0.886650000000     0.500000000000     0.304050000000     0          
O        O      0.939050000000     0.650050000000     0.459400000000     0          
O        O      0.907400000000     0.657400000000     0.375000000000     0          
O        O      0.874150000000     0.648800000000     0.457700000000     0          
O        O      0.500000000000     0.647600000000     0.492750000000     0          
O        O      0.957650000000     0.689300000000     0.031900000000     0          
O        O      0.809100000000     0.500000000000     0.304400000000     0          
O        O      0.790900000000     0.540900000000     0.375000000000     0          
O        O      0.956200000000     0.500000000000     0.014500000000     0          
T        Si     0.907100000000     0.560150000000     0.423200000000     0          
T        Si     0.885400000000     0.538400000000     0.319100000000     0          
T        Si     0.907150000000     0.638950000000     0.428050000000     0          
T        Si     0.962000000000     0.653150000000     0.008000000000     0          
T        Si     0.810050000000     0.537800000000     0.322800000000     0          
T        Si     0.961900000000     0.538100000000     0.000000000000     0          
T        Si     0.903500000000     0.596500000000     0.250000000000     0          
O        O      0.952500000000     0.561000000000     0.046750000000     0          
O        O      0.951200000000     0.625800000000     0.048100000000     0          
O        O      0.955600000000     0.592800000000     0.131700000000     0          
O        O      0.900300000000     0.592000000000     0.080750000000     0          
O        O      0.939650000000     0.600100000000     0.225700000000     0          
O        O      0.950850000000     0.652200000000     0.170250000000     0          
O        O      0.849950000000     0.560950000000     0.040600000000     0          
O        O      0.842600000000     0.592600000000     0.125000000000     0          
O        O      0.851200000000     0.625850000000     0.042300000000     0          
O        O      0.810700000000     0.542350000000     0.468100000000     0          
O        O      0.959100000000     0.709100000000     0.125000000000     0          
T        Si     0.939850000000     0.592900000000     0.076800000000     0          
T        Si     0.961600000000     0.614600000000     0.180900000000     0          
T        Si     0.861050000000     0.592850000000     0.071950000000     0          
T        Si     0.846850000000     0.538000000000     0.492000000000     0          
T        Si     0.962200000000     0.689950000000     0.177200000000     0          
O        O      0.561000000000     0.547500000000     0.453250000000     0          
O        O      0.625800000000     0.548800000000     0.451900000000     0          
O        O      0.592800000000     0.544400000000     0.368300000000     0          
O        O      0.592000000000     0.599700000000     0.419250000000     0          
O        O      0.600100000000     0.560350000000     0.274300000000     0          
O        O      0.652200000000     0.549150000000     0.329750000000     0          
O        O      0.560950000000     0.650050000000     0.459400000000     0          
O        O      0.592600000000     0.657400000000     0.375000000000     0          
O        O      0.625850000000     0.648800000000     0.457700000000     0          
O        O      0.542350000000     0.689300000000     0.031900000000     0          
O        O      0.709100000000     0.540900000000     0.375000000000     0          
T        Si     0.592900000000     0.560150000000     0.423200000000     0          
T        Si     0.614600000000     0.538400000000     0.319100000000     0          
T        Si     0.592850000000     0.638950000000     0.428050000000     0          
T        Si     0.538000000000     0.653150000000     0.008000000000     0          
T        Si     0.689950000000     0.537800000000     0.322800000000     0          
O        O      0.547500000000     0.939000000000     0.046750000000     0          
O        O      0.548800000000     0.874200000000     0.048100000000     0          
O        O      0.544400000000     0.907200000000     0.131700000000     0          
O        O      0.599700000000     0.908000000000     0.080750000000     0          
O        O      0.560350000000     0.899900000000     0.225700000000     0          
O        O      0.549150000000     0.847800000000     0.170250000000     0          
O        O      0.650050000000     0.939050000000     0.040600000000     0          
O        O      0.657400000000     0.907400000000     0.125000000000     0          
O        O      0.648800000000     0.874150000000     0.042300000000     0          
O        O      0.689300000000     0.957650000000     0.468100000000     0          
O        O      0.540900000000     0.790900000000     0.125000000000     0          
T        Si     0.560150000000     0.907100000000     0.076800000000     0          
T        Si     0.538400000000     0.885400000000     0.180900000000     0          
T        Si     0.638950000000     0.907150000000     0.071950000000     0          
T        Si     0.653150000000     0.962000000000     0.492000000000     0          
T        Si     0.537800000000     0.810050000000     0.177200000000     0          
O        O      0.939000000000     0.952500000000     0.453250000000     0          
O        O      0.874200000000     0.951200000000     0.451900000000     0          
O        O      0.907200000000     0.955600000000     0.368300000000     0          
O        O      0.908000000000     0.900300000000     0.419250000000     0          
O        O      0.899900000000     0.939650000000     0.274300000000     0          
O        O      0.847800000000     0.950850000000     0.329750000000     0          
O        O      0.939050000000     0.849950000000     0.459400000000     0          
O        O      0.907400000000     0.842600000000     0.375000000000     0          
O        O      0.874150000000     0.851200000000     0.457700000000     0          
O        O      0.957650000000     0.810700000000     0.031900000000     0          
O        O      0.790900000000     0.959100000000     0.375000000000     0          
T        Si     0.907100000000     0.939850000000     0.423200000000     0          
T        Si     0.885400000000     0.961600000000     0.319100000000     0          
T        Si     0.907150000000     0.861050000000     0.428050000000     0          
T        Si     0.962000000000     0.846850000000     0.008000000000     0          
T        Si     0.810050000000     0.962200000000     0.322800000000     0          
O        O      0.797500000000     0.811000000000     0.296750000000     0          
O        O      0.798800000000     0.875800000000     0.298100000000     0          
O        O      0.794400000000     0.842800000000     0.381700000000     0          
O        O      0.849700000000     0.842000000000     0.330750000000     0          
O        O      0.810350000000     0.850100000000     0.475700000000     0          
O        O      0.799150000000     0.902200000000     0.420250000000     0          
O        O      0.750000000000     0.863350000000     0.445950000000     0          
O        O      0.900050000000     0.810950000000     0.290600000000     0          
O        O      0.898800000000     0.875850000000     0.292300000000     0          
O        O      0.897600000000     0.750000000000     0.257250000000     0          
O        O      0.939300000000     0.792350000000     0.218100000000     0          
O        O      0.750000000000     0.940900000000     0.445600000000     0          
O        O      0.750000000000     0.793800000000     0.235500000000     0          
T        Si     0.810150000000     0.842900000000     0.326800000000     0          
T        Si     0.788400000000     0.864600000000     0.430900000000     0          
T        Si     0.888950000000     0.842850000000     0.321950000000     0          
T        Si     0.903150000000     0.788000000000     0.242000000000     0          
T        Si     0.787800000000     0.939950000000     0.427200000000     0          
T        Si     0.788100000000     0.788100000000     0.250000000000     0          
T        Si     0.846500000000     0.846500000000     0.000000000000     0          
O        O      0.811000000000     0.702500000000     0.203250000000     0          
O        O      0.875800000000     0.701200000000     0.201900000000     0          
O        O      0.842800000000     0.705600000000     0.118300000000     0          
O        O      0.842000000000     0.650300000000     0.169250000000     0          
O        O      0.850100000000     0.689650000000     0.024300000000     0          
O        O      0.902200000000     0.700850000000     0.079750000000     0          
O        O      0.863350000000     0.750000000000     0.054050000000     0          
O        O      0.810950000000     0.599950000000     0.209400000000     0          
O        O      0.875850000000     0.601200000000     0.207700000000     0          
O        O      0.750000000000     0.602400000000     0.242750000000     0          
O        O      0.792350000000     0.560700000000     0.281900000000     0          
O        O      0.940900000000     0.750000000000     0.054400000000     0          
O        O      0.793800000000     0.750000000000     0.264500000000     0          
T        Si     0.842900000000     0.689850000000     0.173200000000     0          
T        Si     0.864600000000     0.711600000000     0.069100000000     0          
T        Si     0.842850000000     0.611050000000     0.178050000000     0          
T        Si     0.788000000000     0.596850000000     0.258000000000     0          
T        Si     0.939950000000     0.712200000000     0.072800000000     0          
T        Si     0.788100000000     0.711900000000     0.250000000000     0          
T        Si     0.846500000000     0.653500000000     0.000000000000     0          
O        O      0.702500000000     0.689000000000     0.296750000000     0          
O        O      0.701200000000     0.624200000000     0.298100000000     0          
O        O      0.705600000000     0.657200000000     0.381700000000     0          
O        O      0.650300000000     0.658000000000     0.330750000000     0          
O        O      0.689650000000     0.649900000000     0.475700000000     0          
O        O      0.700850000000     0.597800000000     0.420250000000     0          
O        O      0.750000000000     0.636650000000     0.445950000000     0          
O        O      0.599950000000     0.689050000000     0.290600000000     0          
O        O      0.601200000000     0.624150000000     0.292300000000     0          
O        O      0.602400000000     0.750000000000     0.257250000000     0          
O        O      0.560700000000     0.707650000000     0.218100000000     0          
O        O      0.750000000000     0.559100000000     0.445600000000     0          
O        O      0.750000000000     0.706200000000     0.235500000000     0          
T        Si     0.689850000000     0.657100000000     0.326800000000     0          
T        Si     0.711600000000     0.635400000000     0.430900000000     0          
T        Si     0.611050000000     0.657150000000     0.321950000000     0          
T        Si     0.596850000000     0.712000000000     0.242000000000     0          
T        Si     0.712200000000     0.560050000000     0.427200000000     0          
T        Si     0.711900000000     0.711900000000     0.250000000000     0          
T        Si     0.653500000000     0.653500000000     0.000000000000     0          
O        O      0.689000000000     0.797500000000     0.203250000000     0          
O        O      0.624200000000     0.798800000000     0.201900000000     0          
O        O      0.657200000000     0.794400000000     0.118300000000     0          
O        O      0.658000000000     0.849700000000     0.169250000000     0          
O        O      0.649900000000     0.810350000000     0.024300000000     0          
O        O      0.597800000000     0.799150000000     0.079750000000     0          
O        O      0.636650000000     0.750000000000     0.054050000000     0          
O        O      0.689050000000     0.900050000000     0.209400000000     0          
O        O      0.624150000000     0.898800000000     0.207700000000     0          
O        O      0.750000000000     0.897600000000     0.242750000000     0          
O        O      0.707650000000     0.939300000000     0.281900000000     0          
O        O      0.559100000000     0.750000000000     0.054400000000     0          
O        O      0.706200000000     0.750000000000     0.264500000000     0          
T        Si     0.657100000000     0.810150000000     0.173200000000     0          
T        Si     0.635400000000     0.788400000000     0.069100000000     0          
T        Si     0.657150000000     0.888950000000     0.178050000000     0          
T        Si     0.712000000000     0.903150000000     0.258000000000     0          
T        Si     0.560050000000     0.787800000000     0.072800000000     0          
T        Si     0.711900000000     0.788100000000     0.250000000000     0          
T        Si     0.653500000000     0.846500000000     0.000000000000     0          
O        O      0.702500000000     0.811000000000     0.296750000000     0          
O        O      0.701200000000     0.875800000000     0.298100000000     0          
O        O      0.705600000000     0.842800000000     0.381700000000     0          
O        O      0.650300000000     0.842000000000     0.330750000000     0          
O        O      0.689650000000     0.850100000000     0.475700000000     0          
O        O      0.700850000000     0.902200000000     0.420250000000     0          
O        O      0.599950000000     0.810950000000     0.290600000000     0          
O        O      0.601200000000     0.875850000000     0.292300000000     0          
O        O      0.560700000000     0.792350000000     0.218100000000     0          
T        Si     0.689850000000     0.842900000000     0.326800000000     0          
T        Si     0.711600000000     0.864600000000     0.430900000000     0          
T        Si     0.611050000000     0.842850000000     0.321950000000     0          
T        Si     0.596850000000     0.788000000000     0.242000000000     0          
T        Si     0.712200000000     0.939950000000     0.427200000000     0          
O        O      0.811000000000     0.797500000000     0.203250000000     0          
O        O      0.875800000000     0.798800000000     0.201900000000     0          
O        O      0.842800000000     0.794400000000     0.118300000000     0          
O        O      0.842000000000     0.849700000000     0.169250000000     0          
O        O      0.850100000000     0.810350000000     0.024300000000     0          
O        O      0.902200000000     0.799150000000     0.079750000000     0          
O        O      0.810950000000     0.900050000000     0.209400000000     0          
O        O      0.875850000000     0.898800000000     0.207700000000     0          
O        O      0.792350000000     0.939300000000     0.281900000000     0          
T        Si     0.842900000000     0.810150000000     0.173200000000     0          
T        Si     0.864600000000     0.788400000000     0.069100000000     0          
T        Si     0.842850000000     0.888950000000     0.178050000000     0          
T        Si     0.788000000000     0.903150000000     0.258000000000     0          
T        Si     0.939950000000     0.787800000000     0.072800000000     0          
O        O      0.797500000000     0.689000000000     0.296750000000     0          
O        O      0.798800000000     0.624200000000     0.298100000000     0          
O        O      0.794400000000     0.657200000000     0.381700000000     0          
O        O      0.849700000000     0.658000000000     0.330750000000     0          
O        O      0.810350000000     0.649900000000     0.475700000000     0          
O        O      0.799150000000     0.597800000000     0.420250000000     0          
O        O      0.900050000000     0.689050000000     0.290600000000     0          
O        O      0.898800000000     0.624150000000     0.292300000000     0          
O        O      0.939300000000     0.707650000000     0.218100000000     0          
T        Si     0.810150000000     0.657100000000     0.326800000000     0          
T        Si     0.788400000000     0.635400000000     0.430900000000     0          
T        Si     0.888950000000     0.657150000000     0.321950000000     0          
T        Si     0.903150000000     0.712000000000     0.242000000000     0          
T        Si     0.787800000000     0.560050000000     0.427200000000     0          
O        O      0.689000000000     0.702500000000     0.203250000000     0          
O        O      0.624200000000     0.701200000000     0.201900000000     0          
O        O      0.657200000000     0.705600000000     0.118300000000     0          
O        O      0.658000000000     0.650300000000     0.169250000000     0          
O        O      0.649900000000     0.689650000000     0.024300000000     0          
O        O      0.597800000000     0.700850000000     0.079750000000     0          
O        O      0.689050000000     0.599950000000     0.209400000000     0          
O        O      0.624150000000     0.601200000000     0.207700000000     0          
O        O      0.707650000000     0.560700000000     0.281900000000     0          
T        Si     0.657100000000     0.689850000000     0.173200000000     0          
T        Si     0.635400000000     0.711600000000     0.069100000000     0          
T        Si     0.657150000000     0.611050000000     0.178050000000     0          
T        Si     0.712000000000     0.596850000000     0.258000000000     0          
T        Si     0.560050000000     0.712200000000     0.072800000000     0          
O        O      0.547500000000     0.561000000000     0.546750000000     0          
O        O      0.548800000000     0.625800000000     0.548100000000     0          
O        O      0.544400000000     0.592800000000     0.631700000000     0          
O        O      0.599700000000     0.592000000000     0.580750000000     0          
O        O      0.560350000000     0.600100000000     0.725700000000     0          
O        O      0.549150000000     0.652200000000     0.670250000000     0          
O        O      0.500000000000     0.613350000000     0.695950000000     0          
O        O      0.650050000000     0.560950000000     0.540600000000     0          
O        O      0.657400000000     0.592600000000     0.625000000000     0          
O        O      0.648800000000     0.625850000000     0.542300000000     0          
O        O      0.647600000000     0.500000000000     0.507250000000     0          
O        O      0.689300000000     0.542350000000     0.968100000000     0          
O        O      0.500000000000     0.690900000000     0.695600000000     0          
O        O      0.540900000000     0.709100000000     0.625000000000     0          
O        O      0.500000000000     0.543800000000     0.985500000000     0          
T        Si     0.560150000000     0.592900000000     0.576800000000     0          
T        Si     0.538400000000     0.614600000000     0.680900000000     0          
T        Si     0.638950000000     0.592850000000     0.571950000000     0          
T        Si     0.653150000000     0.538000000000     0.992000000000     0          
T        Si     0.537800000000     0.689950000000     0.677200000000     0          
T        Si     0.538100000000     0.538100000000     0.500000000000     0          
T        Si     0.596500000000     0.596500000000     0.750000000000     0          
O        O      0.561000000000     0.952500000000     0.953250000000     0          
O        O      0.625800000000     0.951200000000     0.951900000000     0          
O        O      0.592800000000     0.955600000000     0.868300000000     0          
O        O      0.592000000000     0.900300000000     0.919250000000     0          
O        O      0.600100000000     0.939650000000     0.774300000000     0          
O        O      0.652200000000     0.950850000000     0.829750000000     0          
O        O      0.613350000000     0.500000000000     0.804050000000     0          
O        O      0.560950000000     0.849950000000     0.959400000000     0          
O        O      0.592600000000     0.842600000000     0.875000000000     0          
O        O      0.625850000000     0.851200000000     0.957700000000     0          
O        O      0.500000000000     0.852400000000     0.992750000000     0          
O        O      0.542350000000     0.810700000000     0.531900000000     0          
O        O      0.690900000000     0.500000000000     0.804400000000     0          
O        O      0.709100000000     0.959100000000     0.875000000000     0          
O        O      0.543800000000     0.500000000000     0.514500000000     0          
T        Si     0.592900000000     0.939850000000     0.923200000000     0          
T        Si     0.614600000000     0.961600000000     0.819100000000     0          
T        Si     0.592850000000     0.861050000000     0.928050000000     0          
T        Si     0.538000000000     0.846850000000     0.508000000000     0          
T        Si     0.689950000000     0.962200000000     0.822800000000     0          
T        Si     0.538100000000     0.961900000000     0.500000000000     0          
T        Si     0.596500000000     0.903500000000     0.750000000000     0          
O        O      0.952500000000     0.939000000000     0.546750000000     0          
O        O      0.951200000000     0.874200000000     0.548100000000     0          
O        O      0.955600000000     0.907200000000     0.631700000000     0          
O        O      0.900300000000     0.908000000000     0.580750000000     0          
O        O      0.939650000000     0.899900000000     0.725700000000     0          
O        O      0.950850000000     0.847800000000     0.670250000000     0          
O        O      0.500000000000     0.886650000000     0.695950000000     0          
O        O      0.849950000000     0.939050000000     0.540600000000     0          
O        O      0.842600000000     0.907400000000     0.625000000000     0          
O        O      0.851200000000     0.874150000000     0.542300000000     0          
O        O      0.852400000000     0.500000000000     0.507250000000     0          
O        O      0.810700000000     0.957650000000     0.968100000000     0          
O        O      0.500000000000     0.809100000000     0.695600000000     0          
O        O      0.959100000000     0.790900000000     0.625000000000     0          
O        O      0.500000000000     0.956200000000     0.985500000000     0          
T        Si     0.939850000000     0.907100000000     0.576800000000     0          
T        Si     0.961600000000     0.885400000000     0.680900000000     0          
T        Si     0.861050000000     0.907150000000     0.571950000000     0          
T        Si     0.846850000000     0.962000000000     0.992000000000     0          
T        Si     0.962200000000     0.810050000000     0.677200000000     0          
T        Si     0.961900000000     0.961900000000     0.500000000000     0          
T        Si     0.903500000000     0.903500000000     0.750000000000     0          
O        O      0.939000000000     0.547500000000     0.953250000000     0          
O        O      0.874200000000     0.548800000000     0.951900000000     0          
O        O      0.907200000000     0.544400000000     0.868300000000     0          
O        O      0.908000000000     0.599700000000     0.919250000000     0          
O        O      0.899900000000     0.560350000000     0.774300000000     0          
O        O      0.847800000000     0.549150000000     0.829750000000     0          
O        O      0.886650000000     0.500000000000     0.804050000000     0          
O        O      0.939050000000     0.650050000000     0.959400000000     0          
O        O      0.907400000000     0.657400000000     0.875000000000     0          
O        O      0.874150000000     0.648800000000     0.957700000000     0          
O        O      0.500000000000     0.647600000000     0.992750000000     0          
O        O      0.957650000000     0.689300000000     0.531900000000     0          
O        O      0.809100000000     0.500000000000     0.804400000000     0          
O        O      0.790900000000     0.540900000000     0.875000000000     0          
O        O      0.956200000000     0.500000000000     0.514500000000     0          
T        Si     0.907100000000     0.560150000000     0.923200000000     0          
T        Si     0.885400000000     0.538400000000     0.819100000000     0          
T        Si     0.907150000000     0.638950000000     0.928050000000     0          
T        Si     0.962000000000     0.653150000000     0.508000000000     0          
T        Si     0.810050000000     0.537800000000     0.822800000000     0          
T        Si     0.961900000000     0.538100000000     0.500000000000     0          
T        Si     0.903500000000     0.596500000000     0.750000000000     0          
O        O      0.952500000000     0.561000000000     0.546750000000     0          
O        O      0.951200000000     0.625800000000     0.548100000000     0          
O        O      0.955600000000     0.592800000000     0.631700000000     0          
O        O      0.900300000000     0.592000000000     0.580750000000     0          
O        O      0.939650000000     0.600100000000     0.725700000000     0          
O        O      0.950850000000     0.652200000000     0.670250000000     0          
O        O      0.849950000000     0.560950000000     0.540600000000     0          
O        O      0.842600000000     0.592600000000     0.625000000000     0          
O        O      0.851200000000     0.625850000000     0.542300000000     0          
O        O      0.810700000000     0.542350000000     0.968100000000     0          
O        O      0.959100000000     0.709100000000     0.625000000000     0          
T        Si     0.939850000000     0.592900000000     0.576800000000     0          
T        Si     0.961600000000     0.614600000000     0.680900000000     0          
T        Si     0.861050000000     0.592850000000     0.571950000000     0          
T        Si     0.846850000000     0.538000000000     0.992000000000     0          
T        Si     0.962200000000     0.689950000000     0.677200000000     0          
O        O      0.561000000000     0.547500000000     0.953250000000     0          
O        O      0.625800000000     0.548800000000     0.951900000000     0          
O        O      0.592800000000     0.544400000000     0.868300000000     0          
O        O      0.592000000000     0.599700000000     0.919250000000     0          
O        O      0.600100000000     0.560350000000     0.774300000000     0          
O        O      0.652200000000     0.549150000000     0.829750000000     0          
O        O      0.560950000000     0.650050000000     0.959400000000     0          
O        O      0.592600000000     0.657400000000     0.875000000000     0          
O        O      0.625850000000     0.648800000000     0.957700000000     0          
O        O      0.542350000000     0.689300000000     0.531900000000     0          
O        O      0.709100000000     0.540900000000     0.875000000000     0          
T        Si     0.592900000000     0.560150000000     0.923200000000     0          
T        Si     0.614600000000     0.538400000000     0.819100000000     0          
T        Si     0.592850000000     0.638950000000     0.928050000000     0          
T        Si     0.538000000000     0.653150000000     0.508000000000     0          
T        Si     0.689950000000     0.537800000000     0.822800000000     0          
O        O      0.547500000000     0.939000000000     0.546750000000     0          
O        O      0.548800000000     0.874200000000     0.548100000000     0          
O        O      0.544400000000     0.907200000000     0.631700000000     0          
O        O      0.599700000000     0.908000000000     0.580750000000     0          
O        O      0.560350000000     0.899900000000     0.725700000000     0          
O        O      0.549150000000     0.847800000000     0.670250000000     0          
O        O      0.650050000000     0.939050000000     0.540600000000     0          
O        O      0.657400000000     0.907400000000     0.625000000000     0          
O        O      0.648800000000     0.874150000000     0.542300000000     0          
O        O      0.689300000000     0.957650000000     0.968100000000     0          
O        O      0.540900000000     0.790900000000     0.625000000000     0          
T        Si     0.560150000000     0.907100000000     0.576800000000     0          
T        Si     0.538400000000     0.885400000000     0.680900000000     0          
T        Si     0.638950000000     0.907150000000     0.571950000000     0          
T        Si     0.653150000000     0.962000000000     0.992000000000     0          
T        Si     0.537800000000     0.810050000000     0.677200000000     0          
O        O      0.939000000000     0.952500000000     0.953250000000     0          
O        O      0.874200000000     0.951200000000     0.951900000000     0          
O        O      0.907200000000     0.955600000000     0.868300000000     0          
O        O      0.908000000000     0.900300000000     0.919250000000     0          
O        O      0.899900000000     0.939650000000     0.774300000000     0          
O        O      0.847800000000     0.950850000000     0.829750000000     0          
O        O      0.939050000000     0.849950000000     0.959400000000     0          
O        O      0.907400000000     0.842600000000     0.875000000000     0          
O        O      0.874150000000     0.851200000000     0.957700000000     0          
O        O      0.957650000000     0.810700000000     0.531900000000     0          
O        O      0.790900000000     0.959100000000     0.875000000000     0          
T        Si     0.907100000000     0.939850000000     0.923200000000     0          
T        Si     0.885400000000     0.961600000000     0.819100000000     0          
T        Si     0.907150000000     0.861050000000     0.928050000000     0          
T        Si     0.962000000000     0.846850000000     0.508000000000     0          
T        Si     0.810050000000     0.962200000000     0.822800000000     0          
O        O      0.797500000000     0.811000000000     0.796750000000     0          
O        O      0.798800000000     0.875800000000     0.798100000000     0          
O        O      0.794400000000     0.842800000000     0.881700000000     0          
O        O      0.849700000000     0.842000000000     0.830750000000     0          
O        O      0.810350000000     0.850100000000     0.975700000000     0          
O        O      0.799150000000     0.902200000000     0.920250000000     0          
O        O      0.750000000000     0.863350000000     0.945950000000     0          
O        O      0.900050000000     0.810950000000     0.790600000000     0          
O        O      0.898800000000     0.875850000000     0.792300000000     0          
O        O      0.897600000000     0.750000000000     0.757250000000     0          
O        O      0.939300000000     0.792350000000     0.718100000000     0          
O        O      0.750000000000     0.940900000000     0.945600000000     0          
O        O      0.750000000000     0.793800000000     0.735500000000     0          
T        Si     0.810150000000     0.842900000000     0.826800000000     0          
T        Si     0.788400000000     0.864600000000     0.930900000000     0          
T        Si     0.888950000000     0.842850000000     0.821950000000     0          
T        Si     0.903150000000     0.788000000000     0.742000000000     0          
T        Si     0.787800000000     0.939950000000     0.927200000000     0          
T        Si     0.788100000000     0.788100000000     0.750000000000     0          
T        Si     0.846500000000     0.846500000000     0.500000000000     0          
O        O      0.811000000000     0.702500000000     0.703250000000     0          
O        O      0.875800000000     0.701200000000     0.701900000000     0          
O        O      0.842800000000     0.705600000000     0.618300000000     0          
O        O      0.842000000000     0.650300000000     0.669250000000     0          
O        O      0.850100000000     0.689650000000     0.524300000000     0          
O        O      0.902200000000     0.700850000000     0.579750000000     0          
O        O      0.863350000000     0.750000000000     0.554050000000     0          
O        O      0.810950000000     0.599950000000     0.709400000000     0          
O        O      0.875850000000     0.601200000000     0.707700000000     0          
O        O      0.750000000000     0.602400000000     0.742750000000     0          
O        O      0.792350000000     0.560700000000     0.781900000000     0          
O        O      0.940900000000     0.750000000000     0.554400000000     0          
O        O      0.793800000000     0.750000000000     0.764500000000     0          
T        Si     0.842900000000     0.689850000000     0.673200000000     0          
T        Si     0.864600000000     0.711600000000     0.569100000000     0          
T        Si     0.842850000000     0.611050000000     0.678050000000     0          
T        Si     0.788000000000     0.596850000000     0.758000000000     0          
T        Si     0.939950000000     0.712200000000     0.572800000000     0          
T        Si     0.788100000000     0.711900000000     0.750000000000     0          
T        Si     0.846500000000     0.653500000000     0.500000000000     0          
O        O      0.702500000000     0.689000000000     0.796750000000     0          
O        O      0.701200000000     0.624200000000     0.798100000000     0          
O        O      0.705600000000     0.657200000000     0.881700000000     0          
O        O      0.650300000000     0.658000000000     0.830750000000     0          
O        O      0.689650000000     0.649900000000     0.975700000000     0          
O        O      0.700850000000     0.597800000000     0.920250000000     0          
O        O      0.750000000000     0.636650000000     0.945950000000     0          
O        O      0.599950000000     0.689050000000     0.790600000000     0          
O        O      0.601200000000     0.624150000000     0.792300000000     0          
O        O      0.602400000000     0.750000000000     0.757250000000     0          
O        O      0.560700000000     0.707650000000     0.718100000000     0          
O        O      0.750000000000     0.559100000000     0.945600000000     0          
O        O      0.750000000000     0.706200000000     0.735500000000     0          
T        Si     0.689850000000     0.657100000000     0.826800000000     0          
T        Si     0.711600000000     0.635400000000     0.930900000000     0          
T        Si     0.611050000000     0.657150000000     0.821950000000     0          
T        Si     0.596850000000     0.712000000000     0.742000000000     0          
T        Si     0.712200000000     0.560050000000     0.927200000000     0          
T        Si     0.711900000000     0.711900000000     0.750000000000     0          
T        Si     0.653500000000     0.653500000000     0.500000000000     0          
O        O      0.689000000000     0.797500000000     0.703250000000     0          
O        O      0.624200000000     0.798800000000     0.701900000000     0          
O        O      0.657200000000     0.794400000000     0.618300000000     0          
O        O      0.658000000000     0.849700000000     0.669250000000     0          
O        O      0.649900000000     0.810350000000     0.524300000000     0          
O        O      0.597800000000     0.799150000000     0.579750000000     0          
O        O      0.636650000000     0.750000000000     0.554050000000     0          
O        O      0.689050000000     0.900050000000     0.709400000000     0          
O        O      0.624150000000     0.898800000000     0.707700000000     0          
O        O      0.750000000000     0.897600000000     0.742750000000     0          
O        O      0.707650000000     0.939300000000     0.781900000000     0          
O        O      0.559100000000     0.750000000000     0.554400000000     0          
O        O      0.706200000000     0.750000000000     0.764500000000     0          
T        Si     0.657100000000     0.810150000000     0.673200000000     0          
T        Si     0.635400000000     0.788400000000     0.569100000000     0          
T        Si     0.657150000000     0.888950000000     0.678050000000     0          
T        Si     0.712000000000     0.903150000000     0.758000000000     0          
T        Si     0.560050000000     0.787800000000     0.572800000000     0          
T        Si     0.711900000000     0.788100000000     0.750000000000     0          
T        Si     0.653500000000     0.846500000000     0.500000000000     0          
O        O      0.702500000000     0.811000000000     0.796750000000     0          
O        O      0.701200000000     0.875800000000     0.798100000000     0          
O        O      0.705600000000     0.842800000000     0.881700000000     0          
O        O      0.650300000000     0.842000000000     0.830750000000     0          
O        O      0.689650000000     0.850100000000     0.975700000000     0          
O        O      0.700850000000     0.902200000000     0.920250000000     0          
O        O      0.599950000000     0.810950000000     0.790600000000     0          
O        O      0.601200000000     0.875850000000     0.792300000000     0          
O        O      0.560700000000     0.792350000000     0.718100000000     0          
T        Si     0.689850000000     0.842900000000     0.826800000000     0          
T        Si     0.711600000000     0.864600000000     0.930900000000     0          
T        Si     0.611050000000     0.842850000000     0.821950000000     0          
T        Si     0.596850000000     0.788000000000     0.742000000000     0          
T        Si     0.712200000000     0.939950000000     0.927200000000     0          
O        O      0.811000000000     0.797500000000     0.703250000000     0          
O        O      0.875800000000     0.798800000000     0.701900000000     0          
O        O      0.842800000000     0.794400000000     0.618300000000     0          
O        O      0.842000000000     0.849700000000     0.669250000000     0          
O        O      0.850100000000     0.810350000000     0.524300000000     0          
O        O      0.902200000000     0.799150000000     0.579750000000     0          
O        O      0.810950000000     0.900050000000     0.709400000000     0          
O        O      0.875850000000     0.898800000000     0.707700000000     0          
O        O      0.792350000000     0.939300000000     0.781900000000     0          
T        Si     0.842900000000     0.810150000000     0.673200000000     0          
T        Si     0.864600000000     0.788400000000     0.569100000000     0          
T        Si     0.842850000000     0.888950000000     0.678050000000     0          
T        Si     0.788000000000     0.903150000000     0.758000000000     0          
T        Si     0.939950000000     0.787800000000     0.572800000000     0          
O        O      0.797500000000     0.689000000000     0.796750000000     0          
O        O      0.798800000000     0.624200000000     0.798100000000     0          
O        O      0.794400000000     0.657200000000     0.881700000000     0          
O        O      0.849700000000     0.658000000000     0.830750000000     0          
O        O      0.810350000000     0.649900000000     0.975700000000     0          
O        O      0.799150000000     0.597800000000     0.920250000000     0          
O        O      0.900050000000     0.689050000000     0.790600000000     0          
O        O      0.898800000000     0.624150000000     0.792300000000     0          
O        O      0.939300000000     0.707650000000     0.718100000000     0          
T        Si     0.810150000000     0.657100000000     0.826800000000     0          
T        Si     0.788400000000     0.635400000000     0.930900000000     0          
T        Si     0.888950000000     0.657150000000     0.821950000000     0          
T        Si     0.903150000000     0.712000000000     0.742000000000     0          
T        Si     0.787800000000     0.560050000000     0.927200000000     0          
O        O      0.689000000000     0.702500000000     0.703250000000     0          
O        O      0.624200000000     0.701200000000     0.701900000000     0          
O        O      0.657200000000     0.705600000000     0.618300000000     0          
O        O      0.658000000000     0.650300000000     0.669250000000     0          
O        O      0.649900000000     0.689650000000     0.524300000000     0          
O        O      0.597800000000     0.700850000000     0.579750000000     0          
O        O      0.689050000000     0.599950000000     0.709400000000     0          
O        O      0.624150000000     0.601200000000     0.707700000000     0          
O        O      0.707650000000     0.560700000000     0.781900000000     0          
T        Si     0.657100000000     0.689850000000     0.673200000000     0          
T        Si     0.635400000000     0.711600000000     0.569100000000     0          
T        Si     0.657150000000     0.611050000000     0.678050000000     0          
T        Si     0.712000000000     0.596850000000     0.758000000000     0          
T        Si     0.560050000000     0.712200000000     0.572800000000     0          


