data_zeolite

_audit_creation_method RASPA-1.0
_audit_creation_date 2021-1-12
_audit_author_name ''

_cell_length_a    29.94
_cell_length_b    29.94
_cell_length_c    29.94
_cell_angle_alpha 90
_cell_angle_beta  90
_cell_angle_gamma 90
_cell_volume      26838.3

_symmetry_cell_setting          cubic
_symmetry_space_group_name_Hall 'P 1'
_symmetry_space_group_name_H-M  'P 1'
_symmetry_Int_Tables_number     1

_symmetry_equiv_pos_as_xyz 'x,y,z'

loop_
_atom_site_label
_atom_site_type_symbol
_atom_site_fract_x
_atom_site_fract_y
_atom_site_fract_z
_atom_site_charge
O        O      0.435700000000     0.042450000000     0.483450000000     0          
O        O      0.374500000000     0.009600000000     0.038450000000     0          
O        O      0.410400000000     0.089850000000     0.051600000000     0          
O        O      0.469900000000     0.149750000000     0.075250000000     0          
T        Si     0.419000000000     0.039550000000     0.034550000000     0          
T        Si     0.435500000000     0.135050000000     0.036550000000     0          
O        O      0.314300000000     0.457550000000     0.233450000000     0          
O        O      0.375500000000     0.490400000000     0.288450000000     0          
O        O      0.339600000000     0.410150000000     0.301600000000     0          
O        O      0.280100000000     0.350250000000     0.325250000000     0          
T        Si     0.331000000000     0.460450000000     0.284550000000     0          
T        Si     0.314500000000     0.364950000000     0.286550000000     0          
O        O      0.185700000000     0.207550000000     0.016550000000     0          
O        O      0.124500000000     0.240400000000     0.461550000000     0          
O        O      0.160400000000     0.160150000000     0.448400000000     0          
O        O      0.219900000000     0.100250000000     0.424750000000     0          
T        Si     0.169000000000     0.210450000000     0.465450000000     0          
T        Si     0.185500000000     0.114950000000     0.463450000000     0          
O        O      0.064300000000     0.292450000000     0.266550000000     0          
O        O      0.125500000000     0.259600000000     0.211550000000     0          
O        O      0.089600000000     0.339850000000     0.198400000000     0          
O        O      0.030100000000     0.399750000000     0.174750000000     0          
T        Si     0.081000000000     0.289550000000     0.215450000000     0          
T        Si     0.064500000000     0.385050000000     0.213450000000     0          
O        O      0.483450000000     0.435700000000     0.042450000000     0          
O        O      0.038450000000     0.374500000000     0.009600000000     0          
O        O      0.051600000000     0.410400000000     0.089850000000     0          
O        O      0.075250000000     0.469900000000     0.149750000000     0          
T        Si     0.034550000000     0.419000000000     0.039550000000     0          
T        Si     0.036550000000     0.435500000000     0.135050000000     0          
O        O      0.266550000000     0.064300000000     0.292450000000     0          
O        O      0.211550000000     0.125500000000     0.259600000000     0          
O        O      0.198400000000     0.089600000000     0.339850000000     0          
O        O      0.174750000000     0.030100000000     0.399750000000     0          
T        Si     0.215450000000     0.081000000000     0.289550000000     0          
T        Si     0.213450000000     0.064500000000     0.385050000000     0          
O        O      0.233450000000     0.314300000000     0.457550000000     0          
O        O      0.288450000000     0.375500000000     0.490400000000     0          
O        O      0.301600000000     0.339600000000     0.410150000000     0          
O        O      0.325250000000     0.280100000000     0.350250000000     0          
T        Si     0.284550000000     0.331000000000     0.460450000000     0          
T        Si     0.286550000000     0.314500000000     0.364950000000     0          
O        O      0.016550000000     0.185700000000     0.207550000000     0          
O        O      0.461550000000     0.124500000000     0.240400000000     0          
O        O      0.448400000000     0.160400000000     0.160150000000     0          
O        O      0.424750000000     0.219900000000     0.100250000000     0          
T        Si     0.465450000000     0.169000000000     0.210450000000     0          
T        Si     0.463450000000     0.185500000000     0.114950000000     0          
O        O      0.042450000000     0.483450000000     0.435700000000     0          
O        O      0.009600000000     0.038450000000     0.374500000000     0          
O        O      0.089850000000     0.051600000000     0.410400000000     0          
O        O      0.149750000000     0.075250000000     0.469900000000     0          
T        Si     0.039550000000     0.034550000000     0.419000000000     0          
T        Si     0.135050000000     0.036550000000     0.435500000000     0          
O        O      0.292450000000     0.266550000000     0.064300000000     0          
O        O      0.259600000000     0.211550000000     0.125500000000     0          
O        O      0.339850000000     0.198400000000     0.089600000000     0          
O        O      0.399750000000     0.174750000000     0.030100000000     0          
T        Si     0.289550000000     0.215450000000     0.081000000000     0          
T        Si     0.385050000000     0.213450000000     0.064500000000     0          
O        O      0.457550000000     0.233450000000     0.314300000000     0          
O        O      0.490400000000     0.288450000000     0.375500000000     0          
O        O      0.410150000000     0.301600000000     0.339600000000     0          
O        O      0.350250000000     0.325250000000     0.280100000000     0          
T        Si     0.460450000000     0.284550000000     0.331000000000     0          
T        Si     0.364950000000     0.286550000000     0.314500000000     0          
O        O      0.207550000000     0.016550000000     0.185700000000     0          
O        O      0.240400000000     0.461550000000     0.124500000000     0          
O        O      0.160150000000     0.448400000000     0.160400000000     0          
O        O      0.100250000000     0.424750000000     0.219900000000     0          
T        Si     0.210450000000     0.465450000000     0.169000000000     0          
T        Si     0.114950000000     0.463450000000     0.185500000000     0          
O        O      0.064300000000     0.457550000000     0.016550000000     0          
O        O      0.125500000000     0.490400000000     0.461550000000     0          
O        O      0.089600000000     0.410150000000     0.448400000000     0          
O        O      0.030100000000     0.350250000000     0.424750000000     0          
T        Si     0.081000000000     0.460450000000     0.465450000000     0          
T        Si     0.064500000000     0.364950000000     0.463450000000     0          
O        O      0.185700000000     0.042450000000     0.266550000000     0          
O        O      0.124500000000     0.009600000000     0.211550000000     0          
O        O      0.160400000000     0.089850000000     0.198400000000     0          
O        O      0.219900000000     0.149750000000     0.174750000000     0          
T        Si     0.169000000000     0.039550000000     0.215450000000     0          
T        Si     0.185500000000     0.135050000000     0.213450000000     0          
O        O      0.314300000000     0.292450000000     0.483450000000     0          
O        O      0.375500000000     0.259600000000     0.038450000000     0          
O        O      0.339600000000     0.339850000000     0.051600000000     0          
O        O      0.280100000000     0.399750000000     0.075250000000     0          
T        Si     0.331000000000     0.289550000000     0.034550000000     0          
T        Si     0.314500000000     0.385050000000     0.036550000000     0          
O        O      0.435700000000     0.207550000000     0.233450000000     0          
O        O      0.374500000000     0.240400000000     0.288450000000     0          
O        O      0.410400000000     0.160150000000     0.301600000000     0          
O        O      0.469900000000     0.100250000000     0.325250000000     0          
T        Si     0.419000000000     0.210450000000     0.284550000000     0          
T        Si     0.435500000000     0.114950000000     0.286550000000     0          
O        O      0.016550000000     0.064300000000     0.457550000000     0          
O        O      0.461550000000     0.125500000000     0.490400000000     0          
O        O      0.448400000000     0.089600000000     0.410150000000     0          
O        O      0.424750000000     0.030100000000     0.350250000000     0          
T        Si     0.465450000000     0.081000000000     0.460450000000     0          
T        Si     0.463450000000     0.064500000000     0.364950000000     0          
O        O      0.233450000000     0.435700000000     0.207550000000     0          
O        O      0.288450000000     0.374500000000     0.240400000000     0          
O        O      0.301600000000     0.410400000000     0.160150000000     0          
O        O      0.325250000000     0.469900000000     0.100250000000     0          
T        Si     0.284550000000     0.419000000000     0.210450000000     0          
T        Si     0.286550000000     0.435500000000     0.114950000000     0          
O        O      0.266550000000     0.185700000000     0.042450000000     0          
O        O      0.211550000000     0.124500000000     0.009600000000     0          
O        O      0.198400000000     0.160400000000     0.089850000000     0          
O        O      0.174750000000     0.219900000000     0.149750000000     0          
T        Si     0.215450000000     0.169000000000     0.039550000000     0          
T        Si     0.213450000000     0.185500000000     0.135050000000     0          
O        O      0.483450000000     0.314300000000     0.292450000000     0          
O        O      0.038450000000     0.375500000000     0.259600000000     0          
O        O      0.051600000000     0.339600000000     0.339850000000     0          
O        O      0.075250000000     0.280100000000     0.399750000000     0          
T        Si     0.034550000000     0.331000000000     0.289550000000     0          
T        Si     0.036550000000     0.314500000000     0.385050000000     0          
O        O      0.457550000000     0.016550000000     0.064300000000     0          
O        O      0.490400000000     0.461550000000     0.125500000000     0          
O        O      0.410150000000     0.448400000000     0.089600000000     0          
O        O      0.350250000000     0.424750000000     0.030100000000     0          
T        Si     0.460450000000     0.465450000000     0.081000000000     0          
T        Si     0.364950000000     0.463450000000     0.064500000000     0          
O        O      0.207550000000     0.233450000000     0.435700000000     0          
O        O      0.240400000000     0.288450000000     0.374500000000     0          
O        O      0.160150000000     0.301600000000     0.410400000000     0          
O        O      0.100250000000     0.325250000000     0.469900000000     0          
T        Si     0.210450000000     0.284550000000     0.419000000000     0          
T        Si     0.114950000000     0.286550000000     0.435500000000     0          
O        O      0.042450000000     0.266550000000     0.185700000000     0          
O        O      0.009600000000     0.211550000000     0.124500000000     0          
O        O      0.089850000000     0.198400000000     0.160400000000     0          
O        O      0.149750000000     0.174750000000     0.219900000000     0          
T        Si     0.039550000000     0.215450000000     0.169000000000     0          
T        Si     0.135050000000     0.213450000000     0.185500000000     0          
O        O      0.292450000000     0.483450000000     0.314300000000     0          
O        O      0.259600000000     0.038450000000     0.375500000000     0          
O        O      0.339850000000     0.051600000000     0.339600000000     0          
O        O      0.399750000000     0.075250000000     0.280100000000     0          
T        Si     0.289550000000     0.034550000000     0.331000000000     0          
T        Si     0.385050000000     0.036550000000     0.314500000000     0          
O        O      0.435700000000     0.042450000000     0.983450000000     0          
O        O      0.374500000000     0.009600000000     0.538450000000     0          
O        O      0.410400000000     0.089850000000     0.551600000000     0          
O        O      0.469900000000     0.149750000000     0.575250000000     0          
T        Si     0.419000000000     0.039550000000     0.534550000000     0          
T        Si     0.435500000000     0.135050000000     0.536550000000     0          
O        O      0.314300000000     0.457550000000     0.733450000000     0          
O        O      0.375500000000     0.490400000000     0.788450000000     0          
O        O      0.339600000000     0.410150000000     0.801600000000     0          
O        O      0.280100000000     0.350250000000     0.825250000000     0          
T        Si     0.331000000000     0.460450000000     0.784550000000     0          
T        Si     0.314500000000     0.364950000000     0.786550000000     0          
O        O      0.185700000000     0.207550000000     0.516550000000     0          
O        O      0.124500000000     0.240400000000     0.961550000000     0          
O        O      0.160400000000     0.160150000000     0.948400000000     0          
O        O      0.219900000000     0.100250000000     0.924750000000     0          
T        Si     0.169000000000     0.210450000000     0.965450000000     0          
T        Si     0.185500000000     0.114950000000     0.963450000000     0          
O        O      0.064300000000     0.292450000000     0.766550000000     0          
O        O      0.125500000000     0.259600000000     0.711550000000     0          
O        O      0.089600000000     0.339850000000     0.698400000000     0          
O        O      0.030100000000     0.399750000000     0.674750000000     0          
T        Si     0.081000000000     0.289550000000     0.715450000000     0          
T        Si     0.064500000000     0.385050000000     0.713450000000     0          
O        O      0.483450000000     0.435700000000     0.542450000000     0          
O        O      0.038450000000     0.374500000000     0.509600000000     0          
O        O      0.051600000000     0.410400000000     0.589850000000     0          
O        O      0.075250000000     0.469900000000     0.649750000000     0          
T        Si     0.034550000000     0.419000000000     0.539550000000     0          
T        Si     0.036550000000     0.435500000000     0.635050000000     0          
O        O      0.266550000000     0.064300000000     0.792450000000     0          
O        O      0.211550000000     0.125500000000     0.759600000000     0          
O        O      0.198400000000     0.089600000000     0.839850000000     0          
O        O      0.174750000000     0.030100000000     0.899750000000     0          
T        Si     0.215450000000     0.081000000000     0.789550000000     0          
T        Si     0.213450000000     0.064500000000     0.885050000000     0          
O        O      0.233450000000     0.314300000000     0.957550000000     0          
O        O      0.288450000000     0.375500000000     0.990400000000     0          
O        O      0.301600000000     0.339600000000     0.910150000000     0          
O        O      0.325250000000     0.280100000000     0.850250000000     0          
T        Si     0.284550000000     0.331000000000     0.960450000000     0          
T        Si     0.286550000000     0.314500000000     0.864950000000     0          
O        O      0.016550000000     0.185700000000     0.707550000000     0          
O        O      0.461550000000     0.124500000000     0.740400000000     0          
O        O      0.448400000000     0.160400000000     0.660150000000     0          
O        O      0.424750000000     0.219900000000     0.600250000000     0          
T        Si     0.465450000000     0.169000000000     0.710450000000     0          
T        Si     0.463450000000     0.185500000000     0.614950000000     0          
O        O      0.042450000000     0.483450000000     0.935700000000     0          
O        O      0.009600000000     0.038450000000     0.874500000000     0          
O        O      0.089850000000     0.051600000000     0.910400000000     0          
O        O      0.149750000000     0.075250000000     0.969900000000     0          
T        Si     0.039550000000     0.034550000000     0.919000000000     0          
T        Si     0.135050000000     0.036550000000     0.935500000000     0          
O        O      0.292450000000     0.266550000000     0.564300000000     0          
O        O      0.259600000000     0.211550000000     0.625500000000     0          
O        O      0.339850000000     0.198400000000     0.589600000000     0          
O        O      0.399750000000     0.174750000000     0.530100000000     0          
T        Si     0.289550000000     0.215450000000     0.581000000000     0          
T        Si     0.385050000000     0.213450000000     0.564500000000     0          
O        O      0.457550000000     0.233450000000     0.814300000000     0          
O        O      0.490400000000     0.288450000000     0.875500000000     0          
O        O      0.410150000000     0.301600000000     0.839600000000     0          
O        O      0.350250000000     0.325250000000     0.780100000000     0          
T        Si     0.460450000000     0.284550000000     0.831000000000     0          
T        Si     0.364950000000     0.286550000000     0.814500000000     0          
O        O      0.207550000000     0.016550000000     0.685700000000     0          
O        O      0.240400000000     0.461550000000     0.624500000000     0          
O        O      0.160150000000     0.448400000000     0.660400000000     0          
O        O      0.100250000000     0.424750000000     0.719900000000     0          
T        Si     0.210450000000     0.465450000000     0.669000000000     0          
T        Si     0.114950000000     0.463450000000     0.685500000000     0          
O        O      0.064300000000     0.457550000000     0.516550000000     0          
O        O      0.125500000000     0.490400000000     0.961550000000     0          
O        O      0.089600000000     0.410150000000     0.948400000000     0          
O        O      0.030100000000     0.350250000000     0.924750000000     0          
T        Si     0.081000000000     0.460450000000     0.965450000000     0          
T        Si     0.064500000000     0.364950000000     0.963450000000     0          
O        O      0.185700000000     0.042450000000     0.766550000000     0          
O        O      0.124500000000     0.009600000000     0.711550000000     0          
O        O      0.160400000000     0.089850000000     0.698400000000     0          
O        O      0.219900000000     0.149750000000     0.674750000000     0          
T        Si     0.169000000000     0.039550000000     0.715450000000     0          
T        Si     0.185500000000     0.135050000000     0.713450000000     0          
O        O      0.314300000000     0.292450000000     0.983450000000     0          
O        O      0.375500000000     0.259600000000     0.538450000000     0          
O        O      0.339600000000     0.339850000000     0.551600000000     0          
O        O      0.280100000000     0.399750000000     0.575250000000     0          
T        Si     0.331000000000     0.289550000000     0.534550000000     0          
T        Si     0.314500000000     0.385050000000     0.536550000000     0          
O        O      0.435700000000     0.207550000000     0.733450000000     0          
O        O      0.374500000000     0.240400000000     0.788450000000     0          
O        O      0.410400000000     0.160150000000     0.801600000000     0          
O        O      0.469900000000     0.100250000000     0.825250000000     0          
T        Si     0.419000000000     0.210450000000     0.784550000000     0          
T        Si     0.435500000000     0.114950000000     0.786550000000     0          
O        O      0.016550000000     0.064300000000     0.957550000000     0          
O        O      0.461550000000     0.125500000000     0.990400000000     0          
O        O      0.448400000000     0.089600000000     0.910150000000     0          
O        O      0.424750000000     0.030100000000     0.850250000000     0          
T        Si     0.465450000000     0.081000000000     0.960450000000     0          
T        Si     0.463450000000     0.064500000000     0.864950000000     0          
O        O      0.233450000000     0.435700000000     0.707550000000     0          
O        O      0.288450000000     0.374500000000     0.740400000000     0          
O        O      0.301600000000     0.410400000000     0.660150000000     0          
O        O      0.325250000000     0.469900000000     0.600250000000     0          
T        Si     0.284550000000     0.419000000000     0.710450000000     0          
T        Si     0.286550000000     0.435500000000     0.614950000000     0          
O        O      0.266550000000     0.185700000000     0.542450000000     0          
O        O      0.211550000000     0.124500000000     0.509600000000     0          
O        O      0.198400000000     0.160400000000     0.589850000000     0          
O        O      0.174750000000     0.219900000000     0.649750000000     0          
T        Si     0.215450000000     0.169000000000     0.539550000000     0          
T        Si     0.213450000000     0.185500000000     0.635050000000     0          
O        O      0.483450000000     0.314300000000     0.792450000000     0          
O        O      0.038450000000     0.375500000000     0.759600000000     0          
O        O      0.051600000000     0.339600000000     0.839850000000     0          
O        O      0.075250000000     0.280100000000     0.899750000000     0          
T        Si     0.034550000000     0.331000000000     0.789550000000     0          
T        Si     0.036550000000     0.314500000000     0.885050000000     0          
O        O      0.457550000000     0.016550000000     0.564300000000     0          
O        O      0.490400000000     0.461550000000     0.625500000000     0          
O        O      0.410150000000     0.448400000000     0.589600000000     0          
O        O      0.350250000000     0.424750000000     0.530100000000     0          
T        Si     0.460450000000     0.465450000000     0.581000000000     0          
T        Si     0.364950000000     0.463450000000     0.564500000000     0          
O        O      0.207550000000     0.233450000000     0.935700000000     0          
O        O      0.240400000000     0.288450000000     0.874500000000     0          
O        O      0.160150000000     0.301600000000     0.910400000000     0          
O        O      0.100250000000     0.325250000000     0.969900000000     0          
T        Si     0.210450000000     0.284550000000     0.919000000000     0          
T        Si     0.114950000000     0.286550000000     0.935500000000     0          
O        O      0.042450000000     0.266550000000     0.685700000000     0          
O        O      0.009600000000     0.211550000000     0.624500000000     0          
O        O      0.089850000000     0.198400000000     0.660400000000     0          
O        O      0.149750000000     0.174750000000     0.719900000000     0          
T        Si     0.039550000000     0.215450000000     0.669000000000     0          
T        Si     0.135050000000     0.213450000000     0.685500000000     0          
O        O      0.292450000000     0.483450000000     0.814300000000     0          
O        O      0.259600000000     0.038450000000     0.875500000000     0          
O        O      0.339850000000     0.051600000000     0.839600000000     0          
O        O      0.399750000000     0.075250000000     0.780100000000     0          
T        Si     0.289550000000     0.034550000000     0.831000000000     0          
T        Si     0.385050000000     0.036550000000     0.814500000000     0          
O        O      0.435700000000     0.542450000000     0.483450000000     0          
O        O      0.374500000000     0.509600000000     0.038450000000     0          
O        O      0.410400000000     0.589850000000     0.051600000000     0          
O        O      0.469900000000     0.649750000000     0.075250000000     0          
T        Si     0.419000000000     0.539550000000     0.034550000000     0          
T        Si     0.435500000000     0.635050000000     0.036550000000     0          
O        O      0.314300000000     0.957550000000     0.233450000000     0          
O        O      0.375500000000     0.990400000000     0.288450000000     0          
O        O      0.339600000000     0.910150000000     0.301600000000     0          
O        O      0.280100000000     0.850250000000     0.325250000000     0          
T        Si     0.331000000000     0.960450000000     0.284550000000     0          
T        Si     0.314500000000     0.864950000000     0.286550000000     0          
O        O      0.185700000000     0.707550000000     0.016550000000     0          
O        O      0.124500000000     0.740400000000     0.461550000000     0          
O        O      0.160400000000     0.660150000000     0.448400000000     0          
O        O      0.219900000000     0.600250000000     0.424750000000     0          
T        Si     0.169000000000     0.710450000000     0.465450000000     0          
T        Si     0.185500000000     0.614950000000     0.463450000000     0          
O        O      0.064300000000     0.792450000000     0.266550000000     0          
O        O      0.125500000000     0.759600000000     0.211550000000     0          
O        O      0.089600000000     0.839850000000     0.198400000000     0          
O        O      0.030100000000     0.899750000000     0.174750000000     0          
T        Si     0.081000000000     0.789550000000     0.215450000000     0          
T        Si     0.064500000000     0.885050000000     0.213450000000     0          
O        O      0.483450000000     0.935700000000     0.042450000000     0          
O        O      0.038450000000     0.874500000000     0.009600000000     0          
O        O      0.051600000000     0.910400000000     0.089850000000     0          
O        O      0.075250000000     0.969900000000     0.149750000000     0          
T        Si     0.034550000000     0.919000000000     0.039550000000     0          
T        Si     0.036550000000     0.935500000000     0.135050000000     0          
O        O      0.266550000000     0.564300000000     0.292450000000     0          
O        O      0.211550000000     0.625500000000     0.259600000000     0          
O        O      0.198400000000     0.589600000000     0.339850000000     0          
O        O      0.174750000000     0.530100000000     0.399750000000     0          
T        Si     0.215450000000     0.581000000000     0.289550000000     0          
T        Si     0.213450000000     0.564500000000     0.385050000000     0          
O        O      0.233450000000     0.814300000000     0.457550000000     0          
O        O      0.288450000000     0.875500000000     0.490400000000     0          
O        O      0.301600000000     0.839600000000     0.410150000000     0          
O        O      0.325250000000     0.780100000000     0.350250000000     0          
T        Si     0.284550000000     0.831000000000     0.460450000000     0          
T        Si     0.286550000000     0.814500000000     0.364950000000     0          
O        O      0.016550000000     0.685700000000     0.207550000000     0          
O        O      0.461550000000     0.624500000000     0.240400000000     0          
O        O      0.448400000000     0.660400000000     0.160150000000     0          
O        O      0.424750000000     0.719900000000     0.100250000000     0          
T        Si     0.465450000000     0.669000000000     0.210450000000     0          
T        Si     0.463450000000     0.685500000000     0.114950000000     0          
O        O      0.042450000000     0.983450000000     0.435700000000     0          
O        O      0.009600000000     0.538450000000     0.374500000000     0          
O        O      0.089850000000     0.551600000000     0.410400000000     0          
O        O      0.149750000000     0.575250000000     0.469900000000     0          
T        Si     0.039550000000     0.534550000000     0.419000000000     0          
T        Si     0.135050000000     0.536550000000     0.435500000000     0          
O        O      0.292450000000     0.766550000000     0.064300000000     0          
O        O      0.259600000000     0.711550000000     0.125500000000     0          
O        O      0.339850000000     0.698400000000     0.089600000000     0          
O        O      0.399750000000     0.674750000000     0.030100000000     0          
T        Si     0.289550000000     0.715450000000     0.081000000000     0          
T        Si     0.385050000000     0.713450000000     0.064500000000     0          
O        O      0.457550000000     0.733450000000     0.314300000000     0          
O        O      0.490400000000     0.788450000000     0.375500000000     0          
O        O      0.410150000000     0.801600000000     0.339600000000     0          
O        O      0.350250000000     0.825250000000     0.280100000000     0          
T        Si     0.460450000000     0.784550000000     0.331000000000     0          
T        Si     0.364950000000     0.786550000000     0.314500000000     0          
O        O      0.207550000000     0.516550000000     0.185700000000     0          
O        O      0.240400000000     0.961550000000     0.124500000000     0          
O        O      0.160150000000     0.948400000000     0.160400000000     0          
O        O      0.100250000000     0.924750000000     0.219900000000     0          
T        Si     0.210450000000     0.965450000000     0.169000000000     0          
T        Si     0.114950000000     0.963450000000     0.185500000000     0          
O        O      0.064300000000     0.957550000000     0.016550000000     0          
O        O      0.125500000000     0.990400000000     0.461550000000     0          
O        O      0.089600000000     0.910150000000     0.448400000000     0          
O        O      0.030100000000     0.850250000000     0.424750000000     0          
T        Si     0.081000000000     0.960450000000     0.465450000000     0          
T        Si     0.064500000000     0.864950000000     0.463450000000     0          
O        O      0.185700000000     0.542450000000     0.266550000000     0          
O        O      0.124500000000     0.509600000000     0.211550000000     0          
O        O      0.160400000000     0.589850000000     0.198400000000     0          
O        O      0.219900000000     0.649750000000     0.174750000000     0          
T        Si     0.169000000000     0.539550000000     0.215450000000     0          
T        Si     0.185500000000     0.635050000000     0.213450000000     0          
O        O      0.314300000000     0.792450000000     0.483450000000     0          
O        O      0.375500000000     0.759600000000     0.038450000000     0          
O        O      0.339600000000     0.839850000000     0.051600000000     0          
O        O      0.280100000000     0.899750000000     0.075250000000     0          
T        Si     0.331000000000     0.789550000000     0.034550000000     0          
T        Si     0.314500000000     0.885050000000     0.036550000000     0          
O        O      0.435700000000     0.707550000000     0.233450000000     0          
O        O      0.374500000000     0.740400000000     0.288450000000     0          
O        O      0.410400000000     0.660150000000     0.301600000000     0          
O        O      0.469900000000     0.600250000000     0.325250000000     0          
T        Si     0.419000000000     0.710450000000     0.284550000000     0          
T        Si     0.435500000000     0.614950000000     0.286550000000     0          
O        O      0.016550000000     0.564300000000     0.457550000000     0          
O        O      0.461550000000     0.625500000000     0.490400000000     0          
O        O      0.448400000000     0.589600000000     0.410150000000     0          
O        O      0.424750000000     0.530100000000     0.350250000000     0          
T        Si     0.465450000000     0.581000000000     0.460450000000     0          
T        Si     0.463450000000     0.564500000000     0.364950000000     0          
O        O      0.233450000000     0.935700000000     0.207550000000     0          
O        O      0.288450000000     0.874500000000     0.240400000000     0          
O        O      0.301600000000     0.910400000000     0.160150000000     0          
O        O      0.325250000000     0.969900000000     0.100250000000     0          
T        Si     0.284550000000     0.919000000000     0.210450000000     0          
T        Si     0.286550000000     0.935500000000     0.114950000000     0          
O        O      0.266550000000     0.685700000000     0.042450000000     0          
O        O      0.211550000000     0.624500000000     0.009600000000     0          
O        O      0.198400000000     0.660400000000     0.089850000000     0          
O        O      0.174750000000     0.719900000000     0.149750000000     0          
T        Si     0.215450000000     0.669000000000     0.039550000000     0          
T        Si     0.213450000000     0.685500000000     0.135050000000     0          
O        O      0.483450000000     0.814300000000     0.292450000000     0          
O        O      0.038450000000     0.875500000000     0.259600000000     0          
O        O      0.051600000000     0.839600000000     0.339850000000     0          
O        O      0.075250000000     0.780100000000     0.399750000000     0          
T        Si     0.034550000000     0.831000000000     0.289550000000     0          
T        Si     0.036550000000     0.814500000000     0.385050000000     0          
O        O      0.457550000000     0.516550000000     0.064300000000     0          
O        O      0.490400000000     0.961550000000     0.125500000000     0          
O        O      0.410150000000     0.948400000000     0.089600000000     0          
O        O      0.350250000000     0.924750000000     0.030100000000     0          
T        Si     0.460450000000     0.965450000000     0.081000000000     0          
T        Si     0.364950000000     0.963450000000     0.064500000000     0          
O        O      0.207550000000     0.733450000000     0.435700000000     0          
O        O      0.240400000000     0.788450000000     0.374500000000     0          
O        O      0.160150000000     0.801600000000     0.410400000000     0          
O        O      0.100250000000     0.825250000000     0.469900000000     0          
T        Si     0.210450000000     0.784550000000     0.419000000000     0          
T        Si     0.114950000000     0.786550000000     0.435500000000     0          
O        O      0.042450000000     0.766550000000     0.185700000000     0          
O        O      0.009600000000     0.711550000000     0.124500000000     0          
O        O      0.089850000000     0.698400000000     0.160400000000     0          
O        O      0.149750000000     0.674750000000     0.219900000000     0          
T        Si     0.039550000000     0.715450000000     0.169000000000     0          
T        Si     0.135050000000     0.713450000000     0.185500000000     0          
O        O      0.292450000000     0.983450000000     0.314300000000     0          
O        O      0.259600000000     0.538450000000     0.375500000000     0          
O        O      0.339850000000     0.551600000000     0.339600000000     0          
O        O      0.399750000000     0.575250000000     0.280100000000     0          
T        Si     0.289550000000     0.534550000000     0.331000000000     0          
T        Si     0.385050000000     0.536550000000     0.314500000000     0          
O        O      0.435700000000     0.542450000000     0.983450000000     0          
O        O      0.374500000000     0.509600000000     0.538450000000     0          
O        O      0.410400000000     0.589850000000     0.551600000000     0          
O        O      0.469900000000     0.649750000000     0.575250000000     0          
T        Si     0.419000000000     0.539550000000     0.534550000000     0          
T        Si     0.435500000000     0.635050000000     0.536550000000     0          
O        O      0.314300000000     0.957550000000     0.733450000000     0          
O        O      0.375500000000     0.990400000000     0.788450000000     0          
O        O      0.339600000000     0.910150000000     0.801600000000     0          
O        O      0.280100000000     0.850250000000     0.825250000000     0          
T        Si     0.331000000000     0.960450000000     0.784550000000     0          
T        Si     0.314500000000     0.864950000000     0.786550000000     0          
O        O      0.185700000000     0.707550000000     0.516550000000     0          
O        O      0.124500000000     0.740400000000     0.961550000000     0          
O        O      0.160400000000     0.660150000000     0.948400000000     0          
O        O      0.219900000000     0.600250000000     0.924750000000     0          
T        Si     0.169000000000     0.710450000000     0.965450000000     0          
T        Si     0.185500000000     0.614950000000     0.963450000000     0          
O        O      0.064300000000     0.792450000000     0.766550000000     0          
O        O      0.125500000000     0.759600000000     0.711550000000     0          
O        O      0.089600000000     0.839850000000     0.698400000000     0          
O        O      0.030100000000     0.899750000000     0.674750000000     0          
T        Si     0.081000000000     0.789550000000     0.715450000000     0          
T        Si     0.064500000000     0.885050000000     0.713450000000     0          
O        O      0.483450000000     0.935700000000     0.542450000000     0          
O        O      0.038450000000     0.874500000000     0.509600000000     0          
O        O      0.051600000000     0.910400000000     0.589850000000     0          
O        O      0.075250000000     0.969900000000     0.649750000000     0          
T        Si     0.034550000000     0.919000000000     0.539550000000     0          
T        Si     0.036550000000     0.935500000000     0.635050000000     0          
O        O      0.266550000000     0.564300000000     0.792450000000     0          
O        O      0.211550000000     0.625500000000     0.759600000000     0          
O        O      0.198400000000     0.589600000000     0.839850000000     0          
O        O      0.174750000000     0.530100000000     0.899750000000     0          
T        Si     0.215450000000     0.581000000000     0.789550000000     0          
T        Si     0.213450000000     0.564500000000     0.885050000000     0          
O        O      0.233450000000     0.814300000000     0.957550000000     0          
O        O      0.288450000000     0.875500000000     0.990400000000     0          
O        O      0.301600000000     0.839600000000     0.910150000000     0          
O        O      0.325250000000     0.780100000000     0.850250000000     0          
T        Si     0.284550000000     0.831000000000     0.960450000000     0          
T        Si     0.286550000000     0.814500000000     0.864950000000     0          
O        O      0.016550000000     0.685700000000     0.707550000000     0          
O        O      0.461550000000     0.624500000000     0.740400000000     0          
O        O      0.448400000000     0.660400000000     0.660150000000     0          
O        O      0.424750000000     0.719900000000     0.600250000000     0          
T        Si     0.465450000000     0.669000000000     0.710450000000     0          
T        Si     0.463450000000     0.685500000000     0.614950000000     0          
O        O      0.042450000000     0.983450000000     0.935700000000     0          
O        O      0.009600000000     0.538450000000     0.874500000000     0          
O        O      0.089850000000     0.551600000000     0.910400000000     0          
O        O      0.149750000000     0.575250000000     0.969900000000     0          
T        Si     0.039550000000     0.534550000000     0.919000000000     0          
T        Si     0.135050000000     0.536550000000     0.935500000000     0          
O        O      0.292450000000     0.766550000000     0.564300000000     0          
O        O      0.259600000000     0.711550000000     0.625500000000     0          
O        O      0.339850000000     0.698400000000     0.589600000000     0          
O        O      0.399750000000     0.674750000000     0.530100000000     0          
T        Si     0.289550000000     0.715450000000     0.581000000000     0          
T        Si     0.385050000000     0.713450000000     0.564500000000     0          
O        O      0.457550000000     0.733450000000     0.814300000000     0          
O        O      0.490400000000     0.788450000000     0.875500000000     0          
O        O      0.410150000000     0.801600000000     0.839600000000     0          
O        O      0.350250000000     0.825250000000     0.780100000000     0          
T        Si     0.460450000000     0.784550000000     0.831000000000     0          
T        Si     0.364950000000     0.786550000000     0.814500000000     0          
O        O      0.207550000000     0.516550000000     0.685700000000     0          
O        O      0.240400000000     0.961550000000     0.624500000000     0          
O        O      0.160150000000     0.948400000000     0.660400000000     0          
O        O      0.100250000000     0.924750000000     0.719900000000     0          
T        Si     0.210450000000     0.965450000000     0.669000000000     0          
T        Si     0.114950000000     0.963450000000     0.685500000000     0          
O        O      0.064300000000     0.957550000000     0.516550000000     0          
O        O      0.125500000000     0.990400000000     0.961550000000     0          
O        O      0.089600000000     0.910150000000     0.948400000000     0          
O        O      0.030100000000     0.850250000000     0.924750000000     0          
T        Si     0.081000000000     0.960450000000     0.965450000000     0          
T        Si     0.064500000000     0.864950000000     0.963450000000     0          
O        O      0.185700000000     0.542450000000     0.766550000000     0          
O        O      0.124500000000     0.509600000000     0.711550000000     0          
O        O      0.160400000000     0.589850000000     0.698400000000     0          
O        O      0.219900000000     0.649750000000     0.674750000000     0          
T        Si     0.169000000000     0.539550000000     0.715450000000     0          
T        Si     0.185500000000     0.635050000000     0.713450000000     0          
O        O      0.314300000000     0.792450000000     0.983450000000     0          
O        O      0.375500000000     0.759600000000     0.538450000000     0          
O        O      0.339600000000     0.839850000000     0.551600000000     0          
O        O      0.280100000000     0.899750000000     0.575250000000     0          
T        Si     0.331000000000     0.789550000000     0.534550000000     0          
T        Si     0.314500000000     0.885050000000     0.536550000000     0          
O        O      0.435700000000     0.707550000000     0.733450000000     0          
O        O      0.374500000000     0.740400000000     0.788450000000     0          
O        O      0.410400000000     0.660150000000     0.801600000000     0          
O        O      0.469900000000     0.600250000000     0.825250000000     0          
T        Si     0.419000000000     0.710450000000     0.784550000000     0          
T        Si     0.435500000000     0.614950000000     0.786550000000     0          
O        O      0.016550000000     0.564300000000     0.957550000000     0          
O        O      0.461550000000     0.625500000000     0.990400000000     0          
O        O      0.448400000000     0.589600000000     0.910150000000     0          
O        O      0.424750000000     0.530100000000     0.850250000000     0          
T        Si     0.465450000000     0.581000000000     0.960450000000     0          
T        Si     0.463450000000     0.564500000000     0.864950000000     0          
O        O      0.233450000000     0.935700000000     0.707550000000     0          
O        O      0.288450000000     0.874500000000     0.740400000000     0          
O        O      0.301600000000     0.910400000000     0.660150000000     0          
O        O      0.325250000000     0.969900000000     0.600250000000     0          
T        Si     0.284550000000     0.919000000000     0.710450000000     0          
T        Si     0.286550000000     0.935500000000     0.614950000000     0          
O        O      0.266550000000     0.685700000000     0.542450000000     0          
O        O      0.211550000000     0.624500000000     0.509600000000     0          
O        O      0.198400000000     0.660400000000     0.589850000000     0          
O        O      0.174750000000     0.719900000000     0.649750000000     0          
T        Si     0.215450000000     0.669000000000     0.539550000000     0          
T        Si     0.213450000000     0.685500000000     0.635050000000     0          
O        O      0.483450000000     0.814300000000     0.792450000000     0          
O        O      0.038450000000     0.875500000000     0.759600000000     0          
O        O      0.051600000000     0.839600000000     0.839850000000     0          
O        O      0.075250000000     0.780100000000     0.899750000000     0          
T        Si     0.034550000000     0.831000000000     0.789550000000     0          
T        Si     0.036550000000     0.814500000000     0.885050000000     0          
O        O      0.457550000000     0.516550000000     0.564300000000     0          
O        O      0.490400000000     0.961550000000     0.625500000000     0          
O        O      0.410150000000     0.948400000000     0.589600000000     0          
O        O      0.350250000000     0.924750000000     0.530100000000     0          
T        Si     0.460450000000     0.965450000000     0.581000000000     0          
T        Si     0.364950000000     0.963450000000     0.564500000000     0          
O        O      0.207550000000     0.733450000000     0.935700000000     0          
O        O      0.240400000000     0.788450000000     0.874500000000     0          
O        O      0.160150000000     0.801600000000     0.910400000000     0          
O        O      0.100250000000     0.825250000000     0.969900000000     0          
T        Si     0.210450000000     0.784550000000     0.919000000000     0          
T        Si     0.114950000000     0.786550000000     0.935500000000     0          
O        O      0.042450000000     0.766550000000     0.685700000000     0          
O        O      0.009600000000     0.711550000000     0.624500000000     0          
O        O      0.089850000000     0.698400000000     0.660400000000     0          
O        O      0.149750000000     0.674750000000     0.719900000000     0          
T        Si     0.039550000000     0.715450000000     0.669000000000     0          
T        Si     0.135050000000     0.713450000000     0.685500000000     0          
O        O      0.292450000000     0.983450000000     0.814300000000     0          
O        O      0.259600000000     0.538450000000     0.875500000000     0          
O        O      0.339850000000     0.551600000000     0.839600000000     0          
O        O      0.399750000000     0.575250000000     0.780100000000     0          
T        Si     0.289550000000     0.534550000000     0.831000000000     0          
T        Si     0.385050000000     0.536550000000     0.814500000000     0          
O        O      0.935700000000     0.042450000000     0.483450000000     0          
O        O      0.874500000000     0.009600000000     0.038450000000     0          
O        O      0.910400000000     0.089850000000     0.051600000000     0          
O        O      0.969900000000     0.149750000000     0.075250000000     0          
T        Si     0.919000000000     0.039550000000     0.034550000000     0          
T        Si     0.935500000000     0.135050000000     0.036550000000     0          
O        O      0.814300000000     0.457550000000     0.233450000000     0          
O        O      0.875500000000     0.490400000000     0.288450000000     0          
O        O      0.839600000000     0.410150000000     0.301600000000     0          
O        O      0.780100000000     0.350250000000     0.325250000000     0          
T        Si     0.831000000000     0.460450000000     0.284550000000     0          
T        Si     0.814500000000     0.364950000000     0.286550000000     0          
O        O      0.685700000000     0.207550000000     0.016550000000     0          
O        O      0.624500000000     0.240400000000     0.461550000000     0          
O        O      0.660400000000     0.160150000000     0.448400000000     0          
O        O      0.719900000000     0.100250000000     0.424750000000     0          
T        Si     0.669000000000     0.210450000000     0.465450000000     0          
T        Si     0.685500000000     0.114950000000     0.463450000000     0          
O        O      0.564300000000     0.292450000000     0.266550000000     0          
O        O      0.625500000000     0.259600000000     0.211550000000     0          
O        O      0.589600000000     0.339850000000     0.198400000000     0          
O        O      0.530100000000     0.399750000000     0.174750000000     0          
T        Si     0.581000000000     0.289550000000     0.215450000000     0          
T        Si     0.564500000000     0.385050000000     0.213450000000     0          
O        O      0.983450000000     0.435700000000     0.042450000000     0          
O        O      0.538450000000     0.374500000000     0.009600000000     0          
O        O      0.551600000000     0.410400000000     0.089850000000     0          
O        O      0.575250000000     0.469900000000     0.149750000000     0          
T        Si     0.534550000000     0.419000000000     0.039550000000     0          
T        Si     0.536550000000     0.435500000000     0.135050000000     0          
O        O      0.766550000000     0.064300000000     0.292450000000     0          
O        O      0.711550000000     0.125500000000     0.259600000000     0          
O        O      0.698400000000     0.089600000000     0.339850000000     0          
O        O      0.674750000000     0.030100000000     0.399750000000     0          
T        Si     0.715450000000     0.081000000000     0.289550000000     0          
T        Si     0.713450000000     0.064500000000     0.385050000000     0          
O        O      0.733450000000     0.314300000000     0.457550000000     0          
O        O      0.788450000000     0.375500000000     0.490400000000     0          
O        O      0.801600000000     0.339600000000     0.410150000000     0          
O        O      0.825250000000     0.280100000000     0.350250000000     0          
T        Si     0.784550000000     0.331000000000     0.460450000000     0          
T        Si     0.786550000000     0.314500000000     0.364950000000     0          
O        O      0.516550000000     0.185700000000     0.207550000000     0          
O        O      0.961550000000     0.124500000000     0.240400000000     0          
O        O      0.948400000000     0.160400000000     0.160150000000     0          
O        O      0.924750000000     0.219900000000     0.100250000000     0          
T        Si     0.965450000000     0.169000000000     0.210450000000     0          
T        Si     0.963450000000     0.185500000000     0.114950000000     0          
O        O      0.542450000000     0.483450000000     0.435700000000     0          
O        O      0.509600000000     0.038450000000     0.374500000000     0          
O        O      0.589850000000     0.051600000000     0.410400000000     0          
O        O      0.649750000000     0.075250000000     0.469900000000     0          
T        Si     0.539550000000     0.034550000000     0.419000000000     0          
T        Si     0.635050000000     0.036550000000     0.435500000000     0          
O        O      0.792450000000     0.266550000000     0.064300000000     0          
O        O      0.759600000000     0.211550000000     0.125500000000     0          
O        O      0.839850000000     0.198400000000     0.089600000000     0          
O        O      0.899750000000     0.174750000000     0.030100000000     0          
T        Si     0.789550000000     0.215450000000     0.081000000000     0          
T        Si     0.885050000000     0.213450000000     0.064500000000     0          
O        O      0.957550000000     0.233450000000     0.314300000000     0          
O        O      0.990400000000     0.288450000000     0.375500000000     0          
O        O      0.910150000000     0.301600000000     0.339600000000     0          
O        O      0.850250000000     0.325250000000     0.280100000000     0          
T        Si     0.960450000000     0.284550000000     0.331000000000     0          
T        Si     0.864950000000     0.286550000000     0.314500000000     0          
O        O      0.707550000000     0.016550000000     0.185700000000     0          
O        O      0.740400000000     0.461550000000     0.124500000000     0          
O        O      0.660150000000     0.448400000000     0.160400000000     0          
O        O      0.600250000000     0.424750000000     0.219900000000     0          
T        Si     0.710450000000     0.465450000000     0.169000000000     0          
T        Si     0.614950000000     0.463450000000     0.185500000000     0          
O        O      0.564300000000     0.457550000000     0.016550000000     0          
O        O      0.625500000000     0.490400000000     0.461550000000     0          
O        O      0.589600000000     0.410150000000     0.448400000000     0          
O        O      0.530100000000     0.350250000000     0.424750000000     0          
T        Si     0.581000000000     0.460450000000     0.465450000000     0          
T        Si     0.564500000000     0.364950000000     0.463450000000     0          
O        O      0.685700000000     0.042450000000     0.266550000000     0          
O        O      0.624500000000     0.009600000000     0.211550000000     0          
O        O      0.660400000000     0.089850000000     0.198400000000     0          
O        O      0.719900000000     0.149750000000     0.174750000000     0          
T        Si     0.669000000000     0.039550000000     0.215450000000     0          
T        Si     0.685500000000     0.135050000000     0.213450000000     0          
O        O      0.814300000000     0.292450000000     0.483450000000     0          
O        O      0.875500000000     0.259600000000     0.038450000000     0          
O        O      0.839600000000     0.339850000000     0.051600000000     0          
O        O      0.780100000000     0.399750000000     0.075250000000     0          
T        Si     0.831000000000     0.289550000000     0.034550000000     0          
T        Si     0.814500000000     0.385050000000     0.036550000000     0          
O        O      0.935700000000     0.207550000000     0.233450000000     0          
O        O      0.874500000000     0.240400000000     0.288450000000     0          
O        O      0.910400000000     0.160150000000     0.301600000000     0          
O        O      0.969900000000     0.100250000000     0.325250000000     0          
T        Si     0.919000000000     0.210450000000     0.284550000000     0          
T        Si     0.935500000000     0.114950000000     0.286550000000     0          
O        O      0.516550000000     0.064300000000     0.457550000000     0          
O        O      0.961550000000     0.125500000000     0.490400000000     0          
O        O      0.948400000000     0.089600000000     0.410150000000     0          
O        O      0.924750000000     0.030100000000     0.350250000000     0          
T        Si     0.965450000000     0.081000000000     0.460450000000     0          
T        Si     0.963450000000     0.064500000000     0.364950000000     0          
O        O      0.733450000000     0.435700000000     0.207550000000     0          
O        O      0.788450000000     0.374500000000     0.240400000000     0          
O        O      0.801600000000     0.410400000000     0.160150000000     0          
O        O      0.825250000000     0.469900000000     0.100250000000     0          
T        Si     0.784550000000     0.419000000000     0.210450000000     0          
T        Si     0.786550000000     0.435500000000     0.114950000000     0          
O        O      0.766550000000     0.185700000000     0.042450000000     0          
O        O      0.711550000000     0.124500000000     0.009600000000     0          
O        O      0.698400000000     0.160400000000     0.089850000000     0          
O        O      0.674750000000     0.219900000000     0.149750000000     0          
T        Si     0.715450000000     0.169000000000     0.039550000000     0          
T        Si     0.713450000000     0.185500000000     0.135050000000     0          
O        O      0.983450000000     0.314300000000     0.292450000000     0          
O        O      0.538450000000     0.375500000000     0.259600000000     0          
O        O      0.551600000000     0.339600000000     0.339850000000     0          
O        O      0.575250000000     0.280100000000     0.399750000000     0          
T        Si     0.534550000000     0.331000000000     0.289550000000     0          
T        Si     0.536550000000     0.314500000000     0.385050000000     0          
O        O      0.957550000000     0.016550000000     0.064300000000     0          
O        O      0.990400000000     0.461550000000     0.125500000000     0          
O        O      0.910150000000     0.448400000000     0.089600000000     0          
O        O      0.850250000000     0.424750000000     0.030100000000     0          
T        Si     0.960450000000     0.465450000000     0.081000000000     0          
T        Si     0.864950000000     0.463450000000     0.064500000000     0          
O        O      0.707550000000     0.233450000000     0.435700000000     0          
O        O      0.740400000000     0.288450000000     0.374500000000     0          
O        O      0.660150000000     0.301600000000     0.410400000000     0          
O        O      0.600250000000     0.325250000000     0.469900000000     0          
T        Si     0.710450000000     0.284550000000     0.419000000000     0          
T        Si     0.614950000000     0.286550000000     0.435500000000     0          
O        O      0.542450000000     0.266550000000     0.185700000000     0          
O        O      0.509600000000     0.211550000000     0.124500000000     0          
O        O      0.589850000000     0.198400000000     0.160400000000     0          
O        O      0.649750000000     0.174750000000     0.219900000000     0          
T        Si     0.539550000000     0.215450000000     0.169000000000     0          
T        Si     0.635050000000     0.213450000000     0.185500000000     0          
O        O      0.792450000000     0.483450000000     0.314300000000     0          
O        O      0.759600000000     0.038450000000     0.375500000000     0          
O        O      0.839850000000     0.051600000000     0.339600000000     0          
O        O      0.899750000000     0.075250000000     0.280100000000     0          
T        Si     0.789550000000     0.034550000000     0.331000000000     0          
T        Si     0.885050000000     0.036550000000     0.314500000000     0          
O        O      0.935700000000     0.042450000000     0.983450000000     0          
O        O      0.874500000000     0.009600000000     0.538450000000     0          
O        O      0.910400000000     0.089850000000     0.551600000000     0          
O        O      0.969900000000     0.149750000000     0.575250000000     0          
T        Si     0.919000000000     0.039550000000     0.534550000000     0          
T        Si     0.935500000000     0.135050000000     0.536550000000     0          
O        O      0.814300000000     0.457550000000     0.733450000000     0          
O        O      0.875500000000     0.490400000000     0.788450000000     0          
O        O      0.839600000000     0.410150000000     0.801600000000     0          
O        O      0.780100000000     0.350250000000     0.825250000000     0          
T        Si     0.831000000000     0.460450000000     0.784550000000     0          
T        Si     0.814500000000     0.364950000000     0.786550000000     0          
O        O      0.685700000000     0.207550000000     0.516550000000     0          
O        O      0.624500000000     0.240400000000     0.961550000000     0          
O        O      0.660400000000     0.160150000000     0.948400000000     0          
O        O      0.719900000000     0.100250000000     0.924750000000     0          
T        Si     0.669000000000     0.210450000000     0.965450000000     0          
T        Si     0.685500000000     0.114950000000     0.963450000000     0          
O        O      0.564300000000     0.292450000000     0.766550000000     0          
O        O      0.625500000000     0.259600000000     0.711550000000     0          
O        O      0.589600000000     0.339850000000     0.698400000000     0          
O        O      0.530100000000     0.399750000000     0.674750000000     0          
T        Si     0.581000000000     0.289550000000     0.715450000000     0          
T        Si     0.564500000000     0.385050000000     0.713450000000     0          
O        O      0.983450000000     0.435700000000     0.542450000000     0          
O        O      0.538450000000     0.374500000000     0.509600000000     0          
O        O      0.551600000000     0.410400000000     0.589850000000     0          
O        O      0.575250000000     0.469900000000     0.649750000000     0          
T        Si     0.534550000000     0.419000000000     0.539550000000     0          
T        Si     0.536550000000     0.435500000000     0.635050000000     0          
O        O      0.766550000000     0.064300000000     0.792450000000     0          
O        O      0.711550000000     0.125500000000     0.759600000000     0          
O        O      0.698400000000     0.089600000000     0.839850000000     0          
O        O      0.674750000000     0.030100000000     0.899750000000     0          
T        Si     0.715450000000     0.081000000000     0.789550000000     0          
T        Si     0.713450000000     0.064500000000     0.885050000000     0          
O        O      0.733450000000     0.314300000000     0.957550000000     0          
O        O      0.788450000000     0.375500000000     0.990400000000     0          
O        O      0.801600000000     0.339600000000     0.910150000000     0          
O        O      0.825250000000     0.280100000000     0.850250000000     0          
T        Si     0.784550000000     0.331000000000     0.960450000000     0          
T        Si     0.786550000000     0.314500000000     0.864950000000     0          
O        O      0.516550000000     0.185700000000     0.707550000000     0          
O        O      0.961550000000     0.124500000000     0.740400000000     0          
O        O      0.948400000000     0.160400000000     0.660150000000     0          
O        O      0.924750000000     0.219900000000     0.600250000000     0          
T        Si     0.965450000000     0.169000000000     0.710450000000     0          
T        Si     0.963450000000     0.185500000000     0.614950000000     0          
O        O      0.542450000000     0.483450000000     0.935700000000     0          
O        O      0.509600000000     0.038450000000     0.874500000000     0          
O        O      0.589850000000     0.051600000000     0.910400000000     0          
O        O      0.649750000000     0.075250000000     0.969900000000     0          
T        Si     0.539550000000     0.034550000000     0.919000000000     0          
T        Si     0.635050000000     0.036550000000     0.935500000000     0          
O        O      0.792450000000     0.266550000000     0.564300000000     0          
O        O      0.759600000000     0.211550000000     0.625500000000     0          
O        O      0.839850000000     0.198400000000     0.589600000000     0          
O        O      0.899750000000     0.174750000000     0.530100000000     0          
T        Si     0.789550000000     0.215450000000     0.581000000000     0          
T        Si     0.885050000000     0.213450000000     0.564500000000     0          
O        O      0.957550000000     0.233450000000     0.814300000000     0          
O        O      0.990400000000     0.288450000000     0.875500000000     0          
O        O      0.910150000000     0.301600000000     0.839600000000     0          
O        O      0.850250000000     0.325250000000     0.780100000000     0          
T        Si     0.960450000000     0.284550000000     0.831000000000     0          
T        Si     0.864950000000     0.286550000000     0.814500000000     0          
O        O      0.707550000000     0.016550000000     0.685700000000     0          
O        O      0.740400000000     0.461550000000     0.624500000000     0          
O        O      0.660150000000     0.448400000000     0.660400000000     0          
O        O      0.600250000000     0.424750000000     0.719900000000     0          
T        Si     0.710450000000     0.465450000000     0.669000000000     0          
T        Si     0.614950000000     0.463450000000     0.685500000000     0          
O        O      0.564300000000     0.457550000000     0.516550000000     0          
O        O      0.625500000000     0.490400000000     0.961550000000     0          
O        O      0.589600000000     0.410150000000     0.948400000000     0          
O        O      0.530100000000     0.350250000000     0.924750000000     0          
T        Si     0.581000000000     0.460450000000     0.965450000000     0          
T        Si     0.564500000000     0.364950000000     0.963450000000     0          
O        O      0.685700000000     0.042450000000     0.766550000000     0          
O        O      0.624500000000     0.009600000000     0.711550000000     0          
O        O      0.660400000000     0.089850000000     0.698400000000     0          
O        O      0.719900000000     0.149750000000     0.674750000000     0          
T        Si     0.669000000000     0.039550000000     0.715450000000     0          
T        Si     0.685500000000     0.135050000000     0.713450000000     0          
O        O      0.814300000000     0.292450000000     0.983450000000     0          
O        O      0.875500000000     0.259600000000     0.538450000000     0          
O        O      0.839600000000     0.339850000000     0.551600000000     0          
O        O      0.780100000000     0.399750000000     0.575250000000     0          
T        Si     0.831000000000     0.289550000000     0.534550000000     0          
T        Si     0.814500000000     0.385050000000     0.536550000000     0          
O        O      0.935700000000     0.207550000000     0.733450000000     0          
O        O      0.874500000000     0.240400000000     0.788450000000     0          
O        O      0.910400000000     0.160150000000     0.801600000000     0          
O        O      0.969900000000     0.100250000000     0.825250000000     0          
T        Si     0.919000000000     0.210450000000     0.784550000000     0          
T        Si     0.935500000000     0.114950000000     0.786550000000     0          
O        O      0.516550000000     0.064300000000     0.957550000000     0          
O        O      0.961550000000     0.125500000000     0.990400000000     0          
O        O      0.948400000000     0.089600000000     0.910150000000     0          
O        O      0.924750000000     0.030100000000     0.850250000000     0          
T        Si     0.965450000000     0.081000000000     0.960450000000     0          
T        Si     0.963450000000     0.064500000000     0.864950000000     0          
O        O      0.733450000000     0.435700000000     0.707550000000     0          
O        O      0.788450000000     0.374500000000     0.740400000000     0          
O        O      0.801600000000     0.410400000000     0.660150000000     0          
O        O      0.825250000000     0.469900000000     0.600250000000     0          
T        Si     0.784550000000     0.419000000000     0.710450000000     0          
T        Si     0.786550000000     0.435500000000     0.614950000000     0          
O        O      0.766550000000     0.185700000000     0.542450000000     0          
O        O      0.711550000000     0.124500000000     0.509600000000     0          
O        O      0.698400000000     0.160400000000     0.589850000000     0          
O        O      0.674750000000     0.219900000000     0.649750000000     0          
T        Si     0.715450000000     0.169000000000     0.539550000000     0          
T        Si     0.713450000000     0.185500000000     0.635050000000     0          
O        O      0.983450000000     0.314300000000     0.792450000000     0          
O        O      0.538450000000     0.375500000000     0.759600000000     0          
O        O      0.551600000000     0.339600000000     0.839850000000     0          
O        O      0.575250000000     0.280100000000     0.899750000000     0          
T        Si     0.534550000000     0.331000000000     0.789550000000     0          
T        Si     0.536550000000     0.314500000000     0.885050000000     0          
O        O      0.957550000000     0.016550000000     0.564300000000     0          
O        O      0.990400000000     0.461550000000     0.625500000000     0          
O        O      0.910150000000     0.448400000000     0.589600000000     0          
O        O      0.850250000000     0.424750000000     0.530100000000     0          
T        Si     0.960450000000     0.465450000000     0.581000000000     0          
T        Si     0.864950000000     0.463450000000     0.564500000000     0          
O        O      0.707550000000     0.233450000000     0.935700000000     0          
O        O      0.740400000000     0.288450000000     0.874500000000     0          
O        O      0.660150000000     0.301600000000     0.910400000000     0          
O        O      0.600250000000     0.325250000000     0.969900000000     0          
T        Si     0.710450000000     0.284550000000     0.919000000000     0          
T        Si     0.614950000000     0.286550000000     0.935500000000     0          
O        O      0.542450000000     0.266550000000     0.685700000000     0          
O        O      0.509600000000     0.211550000000     0.624500000000     0          
O        O      0.589850000000     0.198400000000     0.660400000000     0          
O        O      0.649750000000     0.174750000000     0.719900000000     0          
T        Si     0.539550000000     0.215450000000     0.669000000000     0          
T        Si     0.635050000000     0.213450000000     0.685500000000     0          
O        O      0.792450000000     0.483450000000     0.814300000000     0          
O        O      0.759600000000     0.038450000000     0.875500000000     0          
O        O      0.839850000000     0.051600000000     0.839600000000     0          
O        O      0.899750000000     0.075250000000     0.780100000000     0          
T        Si     0.789550000000     0.034550000000     0.831000000000     0          
T        Si     0.885050000000     0.036550000000     0.814500000000     0          
O        O      0.935700000000     0.542450000000     0.483450000000     0          
O        O      0.874500000000     0.509600000000     0.038450000000     0          
O        O      0.910400000000     0.589850000000     0.051600000000     0          
O        O      0.969900000000     0.649750000000     0.075250000000     0          
T        Si     0.919000000000     0.539550000000     0.034550000000     0          
T        Si     0.935500000000     0.635050000000     0.036550000000     0          
O        O      0.814300000000     0.957550000000     0.233450000000     0          
O        O      0.875500000000     0.990400000000     0.288450000000     0          
O        O      0.839600000000     0.910150000000     0.301600000000     0          
O        O      0.780100000000     0.850250000000     0.325250000000     0          
T        Si     0.831000000000     0.960450000000     0.284550000000     0          
T        Si     0.814500000000     0.864950000000     0.286550000000     0          
O        O      0.685700000000     0.707550000000     0.016550000000     0          
O        O      0.624500000000     0.740400000000     0.461550000000     0          
O        O      0.660400000000     0.660150000000     0.448400000000     0          
O        O      0.719900000000     0.600250000000     0.424750000000     0          
T        Si     0.669000000000     0.710450000000     0.465450000000     0          
T        Si     0.685500000000     0.614950000000     0.463450000000     0          
O        O      0.564300000000     0.792450000000     0.266550000000     0          
O        O      0.625500000000     0.759600000000     0.211550000000     0          
O        O      0.589600000000     0.839850000000     0.198400000000     0          
O        O      0.530100000000     0.899750000000     0.174750000000     0          
T        Si     0.581000000000     0.789550000000     0.215450000000     0          
T        Si     0.564500000000     0.885050000000     0.213450000000     0          
O        O      0.983450000000     0.935700000000     0.042450000000     0          
O        O      0.538450000000     0.874500000000     0.009600000000     0          
O        O      0.551600000000     0.910400000000     0.089850000000     0          
O        O      0.575250000000     0.969900000000     0.149750000000     0          
T        Si     0.534550000000     0.919000000000     0.039550000000     0          
T        Si     0.536550000000     0.935500000000     0.135050000000     0          
O        O      0.766550000000     0.564300000000     0.292450000000     0          
O        O      0.711550000000     0.625500000000     0.259600000000     0          
O        O      0.698400000000     0.589600000000     0.339850000000     0          
O        O      0.674750000000     0.530100000000     0.399750000000     0          
T        Si     0.715450000000     0.581000000000     0.289550000000     0          
T        Si     0.713450000000     0.564500000000     0.385050000000     0          
O        O      0.733450000000     0.814300000000     0.457550000000     0          
O        O      0.788450000000     0.875500000000     0.490400000000     0          
O        O      0.801600000000     0.839600000000     0.410150000000     0          
O        O      0.825250000000     0.780100000000     0.350250000000     0          
T        Si     0.784550000000     0.831000000000     0.460450000000     0          
T        Si     0.786550000000     0.814500000000     0.364950000000     0          
O        O      0.516550000000     0.685700000000     0.207550000000     0          
O        O      0.961550000000     0.624500000000     0.240400000000     0          
O        O      0.948400000000     0.660400000000     0.160150000000     0          
O        O      0.924750000000     0.719900000000     0.100250000000     0          
T        Si     0.965450000000     0.669000000000     0.210450000000     0          
T        Si     0.963450000000     0.685500000000     0.114950000000     0          
O        O      0.542450000000     0.983450000000     0.435700000000     0          
O        O      0.509600000000     0.538450000000     0.374500000000     0          
O        O      0.589850000000     0.551600000000     0.410400000000     0          
O        O      0.649750000000     0.575250000000     0.469900000000     0          
T        Si     0.539550000000     0.534550000000     0.419000000000     0          
T        Si     0.635050000000     0.536550000000     0.435500000000     0          
O        O      0.792450000000     0.766550000000     0.064300000000     0          
O        O      0.759600000000     0.711550000000     0.125500000000     0          
O        O      0.839850000000     0.698400000000     0.089600000000     0          
O        O      0.899750000000     0.674750000000     0.030100000000     0          
T        Si     0.789550000000     0.715450000000     0.081000000000     0          
T        Si     0.885050000000     0.713450000000     0.064500000000     0          
O        O      0.957550000000     0.733450000000     0.314300000000     0          
O        O      0.990400000000     0.788450000000     0.375500000000     0          
O        O      0.910150000000     0.801600000000     0.339600000000     0          
O        O      0.850250000000     0.825250000000     0.280100000000     0          
T        Si     0.960450000000     0.784550000000     0.331000000000     0          
T        Si     0.864950000000     0.786550000000     0.314500000000     0          
O        O      0.707550000000     0.516550000000     0.185700000000     0          
O        O      0.740400000000     0.961550000000     0.124500000000     0          
O        O      0.660150000000     0.948400000000     0.160400000000     0          
O        O      0.600250000000     0.924750000000     0.219900000000     0          
T        Si     0.710450000000     0.965450000000     0.169000000000     0          
T        Si     0.614950000000     0.963450000000     0.185500000000     0          
O        O      0.564300000000     0.957550000000     0.016550000000     0          
O        O      0.625500000000     0.990400000000     0.461550000000     0          
O        O      0.589600000000     0.910150000000     0.448400000000     0          
O        O      0.530100000000     0.850250000000     0.424750000000     0          
T        Si     0.581000000000     0.960450000000     0.465450000000     0          
T        Si     0.564500000000     0.864950000000     0.463450000000     0          
O        O      0.685700000000     0.542450000000     0.266550000000     0          
O        O      0.624500000000     0.509600000000     0.211550000000     0          
O        O      0.660400000000     0.589850000000     0.198400000000     0          
O        O      0.719900000000     0.649750000000     0.174750000000     0          
T        Si     0.669000000000     0.539550000000     0.215450000000     0          
T        Si     0.685500000000     0.635050000000     0.213450000000     0          
O        O      0.814300000000     0.792450000000     0.483450000000     0          
O        O      0.875500000000     0.759600000000     0.038450000000     0          
O        O      0.839600000000     0.839850000000     0.051600000000     0          
O        O      0.780100000000     0.899750000000     0.075250000000     0          
T        Si     0.831000000000     0.789550000000     0.034550000000     0          
T        Si     0.814500000000     0.885050000000     0.036550000000     0          
O        O      0.935700000000     0.707550000000     0.233450000000     0          
O        O      0.874500000000     0.740400000000     0.288450000000     0          
O        O      0.910400000000     0.660150000000     0.301600000000     0          
O        O      0.969900000000     0.600250000000     0.325250000000     0          
T        Si     0.919000000000     0.710450000000     0.284550000000     0          
T        Si     0.935500000000     0.614950000000     0.286550000000     0          
O        O      0.516550000000     0.564300000000     0.457550000000     0          
O        O      0.961550000000     0.625500000000     0.490400000000     0          
O        O      0.948400000000     0.589600000000     0.410150000000     0          
O        O      0.924750000000     0.530100000000     0.350250000000     0          
T        Si     0.965450000000     0.581000000000     0.460450000000     0          
T        Si     0.963450000000     0.564500000000     0.364950000000     0          
O        O      0.733450000000     0.935700000000     0.207550000000     0          
O        O      0.788450000000     0.874500000000     0.240400000000     0          
O        O      0.801600000000     0.910400000000     0.160150000000     0          
O        O      0.825250000000     0.969900000000     0.100250000000     0          
T        Si     0.784550000000     0.919000000000     0.210450000000     0          
T        Si     0.786550000000     0.935500000000     0.114950000000     0          
O        O      0.766550000000     0.685700000000     0.042450000000     0          
O        O      0.711550000000     0.624500000000     0.009600000000     0          
O        O      0.698400000000     0.660400000000     0.089850000000     0          
O        O      0.674750000000     0.719900000000     0.149750000000     0          
T        Si     0.715450000000     0.669000000000     0.039550000000     0          
T        Si     0.713450000000     0.685500000000     0.135050000000     0          
O        O      0.983450000000     0.814300000000     0.292450000000     0          
O        O      0.538450000000     0.875500000000     0.259600000000     0          
O        O      0.551600000000     0.839600000000     0.339850000000     0          
O        O      0.575250000000     0.780100000000     0.399750000000     0          
T        Si     0.534550000000     0.831000000000     0.289550000000     0          
T        Si     0.536550000000     0.814500000000     0.385050000000     0          
O        O      0.957550000000     0.516550000000     0.064300000000     0          
O        O      0.990400000000     0.961550000000     0.125500000000     0          
O        O      0.910150000000     0.948400000000     0.089600000000     0          
O        O      0.850250000000     0.924750000000     0.030100000000     0          
T        Si     0.960450000000     0.965450000000     0.081000000000     0          
T        Si     0.864950000000     0.963450000000     0.064500000000     0          
O        O      0.707550000000     0.733450000000     0.435700000000     0          
O        O      0.740400000000     0.788450000000     0.374500000000     0          
O        O      0.660150000000     0.801600000000     0.410400000000     0          
O        O      0.600250000000     0.825250000000     0.469900000000     0          
T        Si     0.710450000000     0.784550000000     0.419000000000     0          
T        Si     0.614950000000     0.786550000000     0.435500000000     0          
O        O      0.542450000000     0.766550000000     0.185700000000     0          
O        O      0.509600000000     0.711550000000     0.124500000000     0          
O        O      0.589850000000     0.698400000000     0.160400000000     0          
O        O      0.649750000000     0.674750000000     0.219900000000     0          
T        Si     0.539550000000     0.715450000000     0.169000000000     0          
T        Si     0.635050000000     0.713450000000     0.185500000000     0          
O        O      0.792450000000     0.983450000000     0.314300000000     0          
O        O      0.759600000000     0.538450000000     0.375500000000     0          
O        O      0.839850000000     0.551600000000     0.339600000000     0          
O        O      0.899750000000     0.575250000000     0.280100000000     0          
T        Si     0.789550000000     0.534550000000     0.331000000000     0          
T        Si     0.885050000000     0.536550000000     0.314500000000     0          
O        O      0.935700000000     0.542450000000     0.983450000000     0          
O        O      0.874500000000     0.509600000000     0.538450000000     0          
O        O      0.910400000000     0.589850000000     0.551600000000     0          
O        O      0.969900000000     0.649750000000     0.575250000000     0          
T        Si     0.919000000000     0.539550000000     0.534550000000     0          
T        Si     0.935500000000     0.635050000000     0.536550000000     0          
O        O      0.814300000000     0.957550000000     0.733450000000     0          
O        O      0.875500000000     0.990400000000     0.788450000000     0          
O        O      0.839600000000     0.910150000000     0.801600000000     0          
O        O      0.780100000000     0.850250000000     0.825250000000     0          
T        Si     0.831000000000     0.960450000000     0.784550000000     0          
T        Si     0.814500000000     0.864950000000     0.786550000000     0          
O        O      0.685700000000     0.707550000000     0.516550000000     0          
O        O      0.624500000000     0.740400000000     0.961550000000     0          
O        O      0.660400000000     0.660150000000     0.948400000000     0          
O        O      0.719900000000     0.600250000000     0.924750000000     0          
T        Si     0.669000000000     0.710450000000     0.965450000000     0          
T        Si     0.685500000000     0.614950000000     0.963450000000     0          
O        O      0.564300000000     0.792450000000     0.766550000000     0          
O        O      0.625500000000     0.759600000000     0.711550000000     0          
O        O      0.589600000000     0.839850000000     0.698400000000     0          
O        O      0.530100000000     0.899750000000     0.674750000000     0          
T        Si     0.581000000000     0.789550000000     0.715450000000     0          
T        Si     0.564500000000     0.885050000000     0.713450000000     0          
O        O      0.983450000000     0.935700000000     0.542450000000     0          
O        O      0.538450000000     0.874500000000     0.509600000000     0          
O        O      0.551600000000     0.910400000000     0.589850000000     0          
O        O      0.575250000000     0.969900000000     0.649750000000     0          
T        Si     0.534550000000     0.919000000000     0.539550000000     0          
T        Si     0.536550000000     0.935500000000     0.635050000000     0          
O        O      0.766550000000     0.564300000000     0.792450000000     0          
O        O      0.711550000000     0.625500000000     0.759600000000     0          
O        O      0.698400000000     0.589600000000     0.839850000000     0          
O        O      0.674750000000     0.530100000000     0.899750000000     0          
T        Si     0.715450000000     0.581000000000     0.789550000000     0          
T        Si     0.713450000000     0.564500000000     0.885050000000     0          
O        O      0.733450000000     0.814300000000     0.957550000000     0          
O        O      0.788450000000     0.875500000000     0.990400000000     0          
O        O      0.801600000000     0.839600000000     0.910150000000     0          
O        O      0.825250000000     0.780100000000     0.850250000000     0          
T        Si     0.784550000000     0.831000000000     0.960450000000     0          
T        Si     0.786550000000     0.814500000000     0.864950000000     0          
O        O      0.516550000000     0.685700000000     0.707550000000     0          
O        O      0.961550000000     0.624500000000     0.740400000000     0          
O        O      0.948400000000     0.660400000000     0.660150000000     0          
O        O      0.924750000000     0.719900000000     0.600250000000     0          
T        Si     0.965450000000     0.669000000000     0.710450000000     0          
T        Si     0.963450000000     0.685500000000     0.614950000000     0          
O        O      0.542450000000     0.983450000000     0.935700000000     0          
O        O      0.509600000000     0.538450000000     0.874500000000     0          
O        O      0.589850000000     0.551600000000     0.910400000000     0          
O        O      0.649750000000     0.575250000000     0.969900000000     0          
T        Si     0.539550000000     0.534550000000     0.919000000000     0          
T        Si     0.635050000000     0.536550000000     0.935500000000     0          
O        O      0.792450000000     0.766550000000     0.564300000000     0          
O        O      0.759600000000     0.711550000000     0.625500000000     0          
O        O      0.839850000000     0.698400000000     0.589600000000     0          
O        O      0.899750000000     0.674750000000     0.530100000000     0          
T        Si     0.789550000000     0.715450000000     0.581000000000     0          
T        Si     0.885050000000     0.713450000000     0.564500000000     0          
O        O      0.957550000000     0.733450000000     0.814300000000     0          
O        O      0.990400000000     0.788450000000     0.875500000000     0          
O        O      0.910150000000     0.801600000000     0.839600000000     0          
O        O      0.850250000000     0.825250000000     0.780100000000     0          
T        Si     0.960450000000     0.784550000000     0.831000000000     0          
T        Si     0.864950000000     0.786550000000     0.814500000000     0          
O        O      0.707550000000     0.516550000000     0.685700000000     0          
O        O      0.740400000000     0.961550000000     0.624500000000     0          
O        O      0.660150000000     0.948400000000     0.660400000000     0          
O        O      0.600250000000     0.924750000000     0.719900000000     0          
T        Si     0.710450000000     0.965450000000     0.669000000000     0          
T        Si     0.614950000000     0.963450000000     0.685500000000     0          
O        O      0.564300000000     0.957550000000     0.516550000000     0          
O        O      0.625500000000     0.990400000000     0.961550000000     0          
O        O      0.589600000000     0.910150000000     0.948400000000     0          
O        O      0.530100000000     0.850250000000     0.924750000000     0          
T        Si     0.581000000000     0.960450000000     0.965450000000     0          
T        Si     0.564500000000     0.864950000000     0.963450000000     0          
O        O      0.685700000000     0.542450000000     0.766550000000     0          
O        O      0.624500000000     0.509600000000     0.711550000000     0          
O        O      0.660400000000     0.589850000000     0.698400000000     0          
O        O      0.719900000000     0.649750000000     0.674750000000     0          
T        Si     0.669000000000     0.539550000000     0.715450000000     0          
T        Si     0.685500000000     0.635050000000     0.713450000000     0          
O        O      0.814300000000     0.792450000000     0.983450000000     0          
O        O      0.875500000000     0.759600000000     0.538450000000     0          
O        O      0.839600000000     0.839850000000     0.551600000000     0          
O        O      0.780100000000     0.899750000000     0.575250000000     0          
T        Si     0.831000000000     0.789550000000     0.534550000000     0          
T        Si     0.814500000000     0.885050000000     0.536550000000     0          
O        O      0.935700000000     0.707550000000     0.733450000000     0          
O        O      0.874500000000     0.740400000000     0.788450000000     0          
O        O      0.910400000000     0.660150000000     0.801600000000     0          
O        O      0.969900000000     0.600250000000     0.825250000000     0          
T        Si     0.919000000000     0.710450000000     0.784550000000     0          
T        Si     0.935500000000     0.614950000000     0.786550000000     0          
O        O      0.516550000000     0.564300000000     0.957550000000     0          
O        O      0.961550000000     0.625500000000     0.990400000000     0          
O        O      0.948400000000     0.589600000000     0.910150000000     0          
O        O      0.924750000000     0.530100000000     0.850250000000     0          
T        Si     0.965450000000     0.581000000000     0.960450000000     0          
T        Si     0.963450000000     0.564500000000     0.864950000000     0          
O        O      0.733450000000     0.935700000000     0.707550000000     0          
O        O      0.788450000000     0.874500000000     0.740400000000     0          
O        O      0.801600000000     0.910400000000     0.660150000000     0          
O        O      0.825250000000     0.969900000000     0.600250000000     0          
T        Si     0.784550000000     0.919000000000     0.710450000000     0          
T        Si     0.786550000000     0.935500000000     0.614950000000     0          
O        O      0.766550000000     0.685700000000     0.542450000000     0          
O        O      0.711550000000     0.624500000000     0.509600000000     0          
O        O      0.698400000000     0.660400000000     0.589850000000     0          
O        O      0.674750000000     0.719900000000     0.649750000000     0          
T        Si     0.715450000000     0.669000000000     0.539550000000     0          
T        Si     0.713450000000     0.685500000000     0.635050000000     0          
O        O      0.983450000000     0.814300000000     0.792450000000     0          
O        O      0.538450000000     0.875500000000     0.759600000000     0          
O        O      0.551600000000     0.839600000000     0.839850000000     0          
O        O      0.575250000000     0.780100000000     0.899750000000     0          
T        Si     0.534550000000     0.831000000000     0.789550000000     0          
T        Si     0.536550000000     0.814500000000     0.885050000000     0          
O        O      0.957550000000     0.516550000000     0.564300000000     0          
O        O      0.990400000000     0.961550000000     0.625500000000     0          
O        O      0.910150000000     0.948400000000     0.589600000000     0          
O        O      0.850250000000     0.924750000000     0.530100000000     0          
T        Si     0.960450000000     0.965450000000     0.581000000000     0          
T        Si     0.864950000000     0.963450000000     0.564500000000     0          
O        O      0.707550000000     0.733450000000     0.935700000000     0          
O        O      0.740400000000     0.788450000000     0.874500000000     0          
O        O      0.660150000000     0.801600000000     0.910400000000     0          
O        O      0.600250000000     0.825250000000     0.969900000000     0          
T        Si     0.710450000000     0.784550000000     0.919000000000     0          
T        Si     0.614950000000     0.786550000000     0.935500000000     0          
O        O      0.542450000000     0.766550000000     0.685700000000     0          
O        O      0.509600000000     0.711550000000     0.624500000000     0          
O        O      0.589850000000     0.698400000000     0.660400000000     0          
O        O      0.649750000000     0.674750000000     0.719900000000     0          
T        Si     0.539550000000     0.715450000000     0.669000000000     0          
T        Si     0.635050000000     0.713450000000     0.685500000000     0          
O        O      0.792450000000     0.983450000000     0.814300000000     0          
O        O      0.759600000000     0.538450000000     0.875500000000     0          
O        O      0.839850000000     0.551600000000     0.839600000000     0          
O        O      0.899750000000     0.575250000000     0.780100000000     0          
T        Si     0.789550000000     0.534550000000     0.831000000000     0          
T        Si     0.885050000000     0.536550000000     0.814500000000     0          


