data_zeolite

_audit_creation_method RASPA-1.0
_audit_creation_date 2021-6-6
_audit_author_name ''

_cell_length_a    30.06
_cell_length_b    31.234
_cell_length_c    27.036
_cell_angle_alpha 90
_cell_angle_beta  90
_cell_angle_gamma 90
_cell_volume      25383.9

_symmetry_cell_setting          orthorhombic
_symmetry_space_group_name_Hall 'P 1'
_symmetry_space_group_name_H-M  'P 1'
_symmetry_Int_Tables_number     1

_symmetry_equiv_pos_as_xyz 'x,y,z'

loop_
_atom_site_label
_atom_site_type_symbol
_atom_site_fract_x
_atom_site_fract_y
_atom_site_fract_z
_atom_site_charge
O        O      0.035200000000     0.762300000000     0.005266666667     0          
O        O      0.140833333333     0.817600000000     0.310866666667     0          
O        O      0.000000000000     0.756700000000     0.250000000000     0          
O        O      0.051300000000     0.102900000000     0.008100000000     0          
O        O      0.083333333333     0.147100000000     0.083333333333     0          
O        O      0.000000000000     0.121800000000     0.083333333333     0          
O        O      0.053300000000     0.033600000000     0.285333333333     0          
O        O      0.052400000000     0.026200000000     0.049066666667     0          
O        O      0.123350000000     0.055600000000     0.003966666667     0          
T        Si     0.157000000000     0.768600000000     0.306900000000     0          
T        Si     0.040383333333     0.138600000000     0.049300000000     0          
T        Si     0.069750000000     0.054700000000     0.003266666667     0          
T        Si     0.083333333333     0.996200000000     0.083333333333     0          
O        O      0.048133333333     0.737700000000     0.171933333333     0          
O        O      0.109166666667     0.682400000000     0.144200000000     0          
O        O      0.083333333333     0.743300000000     0.083333333333     0          
O        O      0.032033333333     0.397100000000     0.174766666667     0          
O        O      0.000000000000     0.352900000000     0.250000000000     0          
O        O      0.083333333333     0.378200000000     0.250000000000     0          
O        O      0.030033333333     0.466400000000     0.118666666667     0          
O        O      0.030933333333     0.473800000000     0.215733333333     0          
O        O      0.126650000000     0.444400000000     0.170633333333     0          
T        Si     0.093000000000     0.731400000000     0.140233333333     0          
T        Si     0.042950000000     0.361400000000     0.215966666667     0          
T        Si     0.013583333333     0.445300000000     0.169933333333     0          
T        Si     0.000000000000     0.503800000000     0.250000000000     0          
O        O      0.118533333333     0.737700000000     0.328066666667     0          
O        O      0.057500000000     0.682400000000     0.022466666667     0          
O        O      0.134633333333     0.397100000000     0.325233333333     0          
O        O      0.136633333333     0.466400000000     0.048000000000     0          
O        O      0.135733333333     0.473800000000     0.284266666667     0          
O        O      0.040016666667     0.444400000000     0.329366666667     0          
T        Si     0.073666666667     0.731400000000     0.026433333333     0          
T        Si     0.123716666667     0.361400000000     0.284033333333     0          
T        Si     0.153083333333     0.445300000000     0.330066666667     0          
O        O      0.131466666667     0.762300000000     0.161400000000     0          
O        O      0.025833333333     0.817600000000     0.189133333333     0          
O        O      0.115366666667     0.102900000000     0.158566666667     0          
O        O      0.113366666667     0.033600000000     0.214666666667     0          
O        O      0.114266666667     0.026200000000     0.117600000000     0          
O        O      0.043316666667     0.055600000000     0.162700000000     0          
T        Si     0.009666666667     0.768600000000     0.193100000000     0          
T        Si     0.126283333333     0.138600000000     0.117366666667     0          
T        Si     0.096916666667     0.054700000000     0.163400000000     0          
O        O      0.131466666667     0.237700000000     0.328066666667     0          
O        O      0.025833333333     0.182400000000     0.022466666667     0          
O        O      0.000000000000     0.243300000000     0.083333333333     0          
O        O      0.115366666667     0.897100000000     0.325233333333     0          
O        O      0.083333333333     0.852900000000     0.250000000000     0          
O        O      0.000000000000     0.878200000000     0.250000000000     0          
O        O      0.113366666667     0.966400000000     0.048000000000     0          
O        O      0.114266666667     0.973800000000     0.284266666667     0          
O        O      0.043316666667     0.944400000000     0.329366666667     0          
T        Si     0.009666666667     0.231400000000     0.026433333333     0          
T        Si     0.126283333333     0.861400000000     0.284033333333     0          
T        Si     0.096916666667     0.945300000000     0.330066666667     0          
T        Si     0.083333333333     0.003800000000     0.250000000000     0          
O        O      0.118533333333     0.262300000000     0.161400000000     0          
O        O      0.057500000000     0.317600000000     0.189133333333     0          
O        O      0.083333333333     0.256700000000     0.250000000000     0          
O        O      0.134633333333     0.602900000000     0.158566666667     0          
O        O      0.000000000000     0.647100000000     0.083333333333     0          
O        O      0.083333333333     0.621800000000     0.083333333333     0          
O        O      0.136633333333     0.533600000000     0.214666666667     0          
O        O      0.135733333333     0.526200000000     0.117600000000     0          
O        O      0.040016666667     0.555600000000     0.162700000000     0          
T        Si     0.073666666667     0.268600000000     0.193100000000     0          
T        Si     0.123716666667     0.638600000000     0.117366666667     0          
T        Si     0.153083333333     0.554700000000     0.163400000000     0          
T        Si     0.000000000000     0.496200000000     0.083333333333     0          
O        O      0.048133333333     0.262300000000     0.005266666667     0          
O        O      0.109166666667     0.317600000000     0.310866666667     0          
O        O      0.032033333333     0.602900000000     0.008100000000     0          
O        O      0.030033333333     0.533600000000     0.285333333333     0          
O        O      0.030933333333     0.526200000000     0.049066666667     0          
O        O      0.126650000000     0.555600000000     0.003966666667     0          
T        Si     0.093000000000     0.268600000000     0.306900000000     0          
T        Si     0.042950000000     0.638600000000     0.049300000000     0          
T        Si     0.013583333333     0.554700000000     0.003266666667     0          
O        O      0.035200000000     0.237700000000     0.171933333333     0          
O        O      0.140833333333     0.182400000000     0.144200000000     0          
O        O      0.051300000000     0.897100000000     0.174766666667     0          
O        O      0.053300000000     0.966400000000     0.118666666667     0          
O        O      0.052400000000     0.973800000000     0.215733333333     0          
O        O      0.123350000000     0.944400000000     0.170633333333     0          
T        Si     0.157000000000     0.231400000000     0.140233333333     0          
T        Si     0.040383333333     0.861400000000     0.215966666667     0          
T        Si     0.069750000000     0.945300000000     0.169933333333     0          
O        O      0.035200000000     0.762300000000     0.338600000000     0          
O        O      0.140833333333     0.817600000000     0.644200000000     0          
O        O      0.000000000000     0.756700000000     0.583333333333     0          
O        O      0.051300000000     0.102900000000     0.341433333333     0          
O        O      0.083333333333     0.147100000000     0.416666666667     0          
O        O      0.000000000000     0.121800000000     0.416666666667     0          
O        O      0.053300000000     0.033600000000     0.618666666667     0          
O        O      0.052400000000     0.026200000000     0.382400000000     0          
O        O      0.123350000000     0.055600000000     0.337300000000     0          
T        Si     0.157000000000     0.768600000000     0.640233333333     0          
T        Si     0.040383333333     0.138600000000     0.382633333333     0          
T        Si     0.069750000000     0.054700000000     0.336600000000     0          
T        Si     0.083333333333     0.996200000000     0.416666666667     0          
O        O      0.048133333333     0.737700000000     0.505266666667     0          
O        O      0.109166666667     0.682400000000     0.477533333333     0          
O        O      0.083333333333     0.743300000000     0.416666666667     0          
O        O      0.032033333333     0.397100000000     0.508100000000     0          
O        O      0.000000000000     0.352900000000     0.583333333333     0          
O        O      0.083333333333     0.378200000000     0.583333333333     0          
O        O      0.030033333333     0.466400000000     0.452000000000     0          
O        O      0.030933333333     0.473800000000     0.549066666667     0          
O        O      0.126650000000     0.444400000000     0.503966666667     0          
T        Si     0.093000000000     0.731400000000     0.473566666667     0          
T        Si     0.042950000000     0.361400000000     0.549300000000     0          
T        Si     0.013583333333     0.445300000000     0.503266666667     0          
T        Si     0.000000000000     0.503800000000     0.583333333333     0          
O        O      0.118533333333     0.737700000000     0.661400000000     0          
O        O      0.057500000000     0.682400000000     0.355800000000     0          
O        O      0.134633333333     0.397100000000     0.658566666667     0          
O        O      0.136633333333     0.466400000000     0.381333333333     0          
O        O      0.135733333333     0.473800000000     0.617600000000     0          
O        O      0.040016666667     0.444400000000     0.662700000000     0          
T        Si     0.073666666667     0.731400000000     0.359766666667     0          
T        Si     0.123716666667     0.361400000000     0.617366666667     0          
T        Si     0.153083333333     0.445300000000     0.663400000000     0          
O        O      0.131466666667     0.762300000000     0.494733333333     0          
O        O      0.025833333333     0.817600000000     0.522466666667     0          
O        O      0.115366666667     0.102900000000     0.491900000000     0          
O        O      0.113366666667     0.033600000000     0.548000000000     0          
O        O      0.114266666667     0.026200000000     0.450933333333     0          
O        O      0.043316666667     0.055600000000     0.496033333333     0          
T        Si     0.009666666667     0.768600000000     0.526433333333     0          
T        Si     0.126283333333     0.138600000000     0.450700000000     0          
T        Si     0.096916666667     0.054700000000     0.496733333333     0          
O        O      0.131466666667     0.237700000000     0.661400000000     0          
O        O      0.025833333333     0.182400000000     0.355800000000     0          
O        O      0.000000000000     0.243300000000     0.416666666667     0          
O        O      0.115366666667     0.897100000000     0.658566666667     0          
O        O      0.083333333333     0.852900000000     0.583333333333     0          
O        O      0.000000000000     0.878200000000     0.583333333333     0          
O        O      0.113366666667     0.966400000000     0.381333333333     0          
O        O      0.114266666667     0.973800000000     0.617600000000     0          
O        O      0.043316666667     0.944400000000     0.662700000000     0          
T        Si     0.009666666667     0.231400000000     0.359766666667     0          
T        Si     0.126283333333     0.861400000000     0.617366666667     0          
T        Si     0.096916666667     0.945300000000     0.663400000000     0          
T        Si     0.083333333333     0.003800000000     0.583333333333     0          
O        O      0.118533333333     0.262300000000     0.494733333333     0          
O        O      0.057500000000     0.317600000000     0.522466666667     0          
O        O      0.083333333333     0.256700000000     0.583333333333     0          
O        O      0.134633333333     0.602900000000     0.491900000000     0          
O        O      0.000000000000     0.647100000000     0.416666666667     0          
O        O      0.083333333333     0.621800000000     0.416666666667     0          
O        O      0.136633333333     0.533600000000     0.548000000000     0          
O        O      0.135733333333     0.526200000000     0.450933333333     0          
O        O      0.040016666667     0.555600000000     0.496033333333     0          
T        Si     0.073666666667     0.268600000000     0.526433333333     0          
T        Si     0.123716666667     0.638600000000     0.450700000000     0          
T        Si     0.153083333333     0.554700000000     0.496733333333     0          
T        Si     0.000000000000     0.496200000000     0.416666666667     0          
O        O      0.048133333333     0.262300000000     0.338600000000     0          
O        O      0.109166666667     0.317600000000     0.644200000000     0          
O        O      0.032033333333     0.602900000000     0.341433333333     0          
O        O      0.030033333333     0.533600000000     0.618666666667     0          
O        O      0.030933333333     0.526200000000     0.382400000000     0          
O        O      0.126650000000     0.555600000000     0.337300000000     0          
T        Si     0.093000000000     0.268600000000     0.640233333333     0          
T        Si     0.042950000000     0.638600000000     0.382633333333     0          
T        Si     0.013583333333     0.554700000000     0.336600000000     0          
O        O      0.035200000000     0.237700000000     0.505266666667     0          
O        O      0.140833333333     0.182400000000     0.477533333333     0          
O        O      0.051300000000     0.897100000000     0.508100000000     0          
O        O      0.053300000000     0.966400000000     0.452000000000     0          
O        O      0.052400000000     0.973800000000     0.549066666667     0          
O        O      0.123350000000     0.944400000000     0.503966666667     0          
T        Si     0.157000000000     0.231400000000     0.473566666667     0          
T        Si     0.040383333333     0.861400000000     0.549300000000     0          
T        Si     0.069750000000     0.945300000000     0.503266666667     0          
O        O      0.035200000000     0.762300000000     0.671933333333     0          
O        O      0.140833333333     0.817600000000     0.977533333333     0          
O        O      0.000000000000     0.756700000000     0.916666666667     0          
O        O      0.051300000000     0.102900000000     0.674766666667     0          
O        O      0.083333333333     0.147100000000     0.750000000000     0          
O        O      0.000000000000     0.121800000000     0.750000000000     0          
O        O      0.053300000000     0.033600000000     0.952000000000     0          
O        O      0.052400000000     0.026200000000     0.715733333333     0          
O        O      0.123350000000     0.055600000000     0.670633333333     0          
T        Si     0.157000000000     0.768600000000     0.973566666667     0          
T        Si     0.040383333333     0.138600000000     0.715966666667     0          
T        Si     0.069750000000     0.054700000000     0.669933333333     0          
T        Si     0.083333333333     0.996200000000     0.750000000000     0          
O        O      0.048133333333     0.737700000000     0.838600000000     0          
O        O      0.109166666667     0.682400000000     0.810866666667     0          
O        O      0.083333333333     0.743300000000     0.750000000000     0          
O        O      0.032033333333     0.397100000000     0.841433333333     0          
O        O      0.000000000000     0.352900000000     0.916666666667     0          
O        O      0.083333333333     0.378200000000     0.916666666667     0          
O        O      0.030033333333     0.466400000000     0.785333333333     0          
O        O      0.030933333333     0.473800000000     0.882400000000     0          
O        O      0.126650000000     0.444400000000     0.837300000000     0          
T        Si     0.093000000000     0.731400000000     0.806900000000     0          
T        Si     0.042950000000     0.361400000000     0.882633333333     0          
T        Si     0.013583333333     0.445300000000     0.836600000000     0          
T        Si     0.000000000000     0.503800000000     0.916666666667     0          
O        O      0.118533333333     0.737700000000     0.994733333333     0          
O        O      0.057500000000     0.682400000000     0.689133333333     0          
O        O      0.134633333333     0.397100000000     0.991900000000     0          
O        O      0.136633333333     0.466400000000     0.714666666667     0          
O        O      0.135733333333     0.473800000000     0.950933333333     0          
O        O      0.040016666667     0.444400000000     0.996033333333     0          
T        Si     0.073666666667     0.731400000000     0.693100000000     0          
T        Si     0.123716666667     0.361400000000     0.950700000000     0          
T        Si     0.153083333333     0.445300000000     0.996733333333     0          
O        O      0.131466666667     0.762300000000     0.828066666667     0          
O        O      0.025833333333     0.817600000000     0.855800000000     0          
O        O      0.115366666667     0.102900000000     0.825233333333     0          
O        O      0.113366666667     0.033600000000     0.881333333333     0          
O        O      0.114266666667     0.026200000000     0.784266666667     0          
O        O      0.043316666667     0.055600000000     0.829366666667     0          
T        Si     0.009666666667     0.768600000000     0.859766666667     0          
T        Si     0.126283333333     0.138600000000     0.784033333333     0          
T        Si     0.096916666667     0.054700000000     0.830066666667     0          
O        O      0.131466666667     0.237700000000     0.994733333333     0          
O        O      0.025833333333     0.182400000000     0.689133333333     0          
O        O      0.000000000000     0.243300000000     0.750000000000     0          
O        O      0.115366666667     0.897100000000     0.991900000000     0          
O        O      0.083333333333     0.852900000000     0.916666666667     0          
O        O      0.000000000000     0.878200000000     0.916666666667     0          
O        O      0.113366666667     0.966400000000     0.714666666667     0          
O        O      0.114266666667     0.973800000000     0.950933333333     0          
O        O      0.043316666667     0.944400000000     0.996033333333     0          
T        Si     0.009666666667     0.231400000000     0.693100000000     0          
T        Si     0.126283333333     0.861400000000     0.950700000000     0          
T        Si     0.096916666667     0.945300000000     0.996733333333     0          
T        Si     0.083333333333     0.003800000000     0.916666666667     0          
O        O      0.118533333333     0.262300000000     0.828066666667     0          
O        O      0.057500000000     0.317600000000     0.855800000000     0          
O        O      0.083333333333     0.256700000000     0.916666666667     0          
O        O      0.134633333333     0.602900000000     0.825233333333     0          
O        O      0.000000000000     0.647100000000     0.750000000000     0          
O        O      0.083333333333     0.621800000000     0.750000000000     0          
O        O      0.136633333333     0.533600000000     0.881333333333     0          
O        O      0.135733333333     0.526200000000     0.784266666667     0          
O        O      0.040016666667     0.555600000000     0.829366666667     0          
T        Si     0.073666666667     0.268600000000     0.859766666667     0          
T        Si     0.123716666667     0.638600000000     0.784033333333     0          
T        Si     0.153083333333     0.554700000000     0.830066666667     0          
T        Si     0.000000000000     0.496200000000     0.750000000000     0          
O        O      0.048133333333     0.262300000000     0.671933333333     0          
O        O      0.109166666667     0.317600000000     0.977533333333     0          
O        O      0.032033333333     0.602900000000     0.674766666667     0          
O        O      0.030033333333     0.533600000000     0.952000000000     0          
O        O      0.030933333333     0.526200000000     0.715733333333     0          
O        O      0.126650000000     0.555600000000     0.670633333333     0          
T        Si     0.093000000000     0.268600000000     0.973566666667     0          
T        Si     0.042950000000     0.638600000000     0.715966666667     0          
T        Si     0.013583333333     0.554700000000     0.669933333333     0          
O        O      0.035200000000     0.237700000000     0.838600000000     0          
O        O      0.140833333333     0.182400000000     0.810866666667     0          
O        O      0.051300000000     0.897100000000     0.841433333333     0          
O        O      0.053300000000     0.966400000000     0.785333333333     0          
O        O      0.052400000000     0.973800000000     0.882400000000     0          
O        O      0.123350000000     0.944400000000     0.837300000000     0          
T        Si     0.157000000000     0.231400000000     0.806900000000     0          
T        Si     0.040383333333     0.861400000000     0.882633333333     0          
T        Si     0.069750000000     0.945300000000     0.836600000000     0          
O        O      0.201866666667     0.762300000000     0.005266666667     0          
O        O      0.307500000000     0.817600000000     0.310866666667     0          
O        O      0.166666666667     0.756700000000     0.250000000000     0          
O        O      0.217966666667     0.102900000000     0.008100000000     0          
O        O      0.250000000000     0.147100000000     0.083333333333     0          
O        O      0.166666666667     0.121800000000     0.083333333333     0          
O        O      0.219966666667     0.033600000000     0.285333333333     0          
O        O      0.219066666667     0.026200000000     0.049066666667     0          
O        O      0.290016666667     0.055600000000     0.003966666667     0          
T        Si     0.323666666667     0.768600000000     0.306900000000     0          
T        Si     0.207050000000     0.138600000000     0.049300000000     0          
T        Si     0.236416666667     0.054700000000     0.003266666667     0          
T        Si     0.250000000000     0.996200000000     0.083333333333     0          
O        O      0.214800000000     0.737700000000     0.171933333333     0          
O        O      0.275833333333     0.682400000000     0.144200000000     0          
O        O      0.250000000000     0.743300000000     0.083333333333     0          
O        O      0.198700000000     0.397100000000     0.174766666667     0          
O        O      0.166666666667     0.352900000000     0.250000000000     0          
O        O      0.250000000000     0.378200000000     0.250000000000     0          
O        O      0.196700000000     0.466400000000     0.118666666667     0          
O        O      0.197600000000     0.473800000000     0.215733333333     0          
O        O      0.293316666667     0.444400000000     0.170633333333     0          
T        Si     0.259666666667     0.731400000000     0.140233333333     0          
T        Si     0.209616666667     0.361400000000     0.215966666667     0          
T        Si     0.180250000000     0.445300000000     0.169933333333     0          
T        Si     0.166666666667     0.503800000000     0.250000000000     0          
O        O      0.285200000000     0.737700000000     0.328066666667     0          
O        O      0.224166666667     0.682400000000     0.022466666667     0          
O        O      0.301300000000     0.397100000000     0.325233333333     0          
O        O      0.303300000000     0.466400000000     0.048000000000     0          
O        O      0.302400000000     0.473800000000     0.284266666667     0          
O        O      0.206683333333     0.444400000000     0.329366666667     0          
T        Si     0.240333333333     0.731400000000     0.026433333333     0          
T        Si     0.290383333333     0.361400000000     0.284033333333     0          
T        Si     0.319750000000     0.445300000000     0.330066666667     0          
O        O      0.298133333333     0.762300000000     0.161400000000     0          
O        O      0.192500000000     0.817600000000     0.189133333333     0          
O        O      0.282033333333     0.102900000000     0.158566666667     0          
O        O      0.280033333333     0.033600000000     0.214666666667     0          
O        O      0.280933333333     0.026200000000     0.117600000000     0          
O        O      0.209983333333     0.055600000000     0.162700000000     0          
T        Si     0.176333333333     0.768600000000     0.193100000000     0          
T        Si     0.292950000000     0.138600000000     0.117366666667     0          
T        Si     0.263583333333     0.054700000000     0.163400000000     0          
O        O      0.298133333333     0.237700000000     0.328066666667     0          
O        O      0.192500000000     0.182400000000     0.022466666667     0          
O        O      0.166666666667     0.243300000000     0.083333333333     0          
O        O      0.282033333333     0.897100000000     0.325233333333     0          
O        O      0.250000000000     0.852900000000     0.250000000000     0          
O        O      0.166666666667     0.878200000000     0.250000000000     0          
O        O      0.280033333333     0.966400000000     0.048000000000     0          
O        O      0.280933333333     0.973800000000     0.284266666667     0          
O        O      0.209983333333     0.944400000000     0.329366666667     0          
T        Si     0.176333333333     0.231400000000     0.026433333333     0          
T        Si     0.292950000000     0.861400000000     0.284033333333     0          
T        Si     0.263583333333     0.945300000000     0.330066666667     0          
T        Si     0.250000000000     0.003800000000     0.250000000000     0          
O        O      0.285200000000     0.262300000000     0.161400000000     0          
O        O      0.224166666667     0.317600000000     0.189133333333     0          
O        O      0.250000000000     0.256700000000     0.250000000000     0          
O        O      0.301300000000     0.602900000000     0.158566666667     0          
O        O      0.166666666667     0.647100000000     0.083333333333     0          
O        O      0.250000000000     0.621800000000     0.083333333333     0          
O        O      0.303300000000     0.533600000000     0.214666666667     0          
O        O      0.302400000000     0.526200000000     0.117600000000     0          
O        O      0.206683333333     0.555600000000     0.162700000000     0          
T        Si     0.240333333333     0.268600000000     0.193100000000     0          
T        Si     0.290383333333     0.638600000000     0.117366666667     0          
T        Si     0.319750000000     0.554700000000     0.163400000000     0          
T        Si     0.166666666667     0.496200000000     0.083333333333     0          
O        O      0.214800000000     0.262300000000     0.005266666667     0          
O        O      0.275833333333     0.317600000000     0.310866666667     0          
O        O      0.198700000000     0.602900000000     0.008100000000     0          
O        O      0.196700000000     0.533600000000     0.285333333333     0          
O        O      0.197600000000     0.526200000000     0.049066666667     0          
O        O      0.293316666667     0.555600000000     0.003966666667     0          
T        Si     0.259666666667     0.268600000000     0.306900000000     0          
T        Si     0.209616666667     0.638600000000     0.049300000000     0          
T        Si     0.180250000000     0.554700000000     0.003266666667     0          
O        O      0.201866666667     0.237700000000     0.171933333333     0          
O        O      0.307500000000     0.182400000000     0.144200000000     0          
O        O      0.217966666667     0.897100000000     0.174766666667     0          
O        O      0.219966666667     0.966400000000     0.118666666667     0          
O        O      0.219066666667     0.973800000000     0.215733333333     0          
O        O      0.290016666667     0.944400000000     0.170633333333     0          
T        Si     0.323666666667     0.231400000000     0.140233333333     0          
T        Si     0.207050000000     0.861400000000     0.215966666667     0          
T        Si     0.236416666667     0.945300000000     0.169933333333     0          
O        O      0.201866666667     0.762300000000     0.338600000000     0          
O        O      0.307500000000     0.817600000000     0.644200000000     0          
O        O      0.166666666667     0.756700000000     0.583333333333     0          
O        O      0.217966666667     0.102900000000     0.341433333333     0          
O        O      0.250000000000     0.147100000000     0.416666666667     0          
O        O      0.166666666667     0.121800000000     0.416666666667     0          
O        O      0.219966666667     0.033600000000     0.618666666667     0          
O        O      0.219066666667     0.026200000000     0.382400000000     0          
O        O      0.290016666667     0.055600000000     0.337300000000     0          
T        Si     0.323666666667     0.768600000000     0.640233333333     0          
T        Si     0.207050000000     0.138600000000     0.382633333333     0          
T        Si     0.236416666667     0.054700000000     0.336600000000     0          
T        Si     0.250000000000     0.996200000000     0.416666666667     0          
O        O      0.214800000000     0.737700000000     0.505266666667     0          
O        O      0.275833333333     0.682400000000     0.477533333333     0          
O        O      0.250000000000     0.743300000000     0.416666666667     0          
O        O      0.198700000000     0.397100000000     0.508100000000     0          
O        O      0.166666666667     0.352900000000     0.583333333333     0          
O        O      0.250000000000     0.378200000000     0.583333333333     0          
O        O      0.196700000000     0.466400000000     0.452000000000     0          
O        O      0.197600000000     0.473800000000     0.549066666667     0          
O        O      0.293316666667     0.444400000000     0.503966666667     0          
T        Si     0.259666666667     0.731400000000     0.473566666667     0          
T        Si     0.209616666667     0.361400000000     0.549300000000     0          
T        Si     0.180250000000     0.445300000000     0.503266666667     0          
T        Si     0.166666666667     0.503800000000     0.583333333333     0          
O        O      0.285200000000     0.737700000000     0.661400000000     0          
O        O      0.224166666667     0.682400000000     0.355800000000     0          
O        O      0.301300000000     0.397100000000     0.658566666667     0          
O        O      0.303300000000     0.466400000000     0.381333333333     0          
O        O      0.302400000000     0.473800000000     0.617600000000     0          
O        O      0.206683333333     0.444400000000     0.662700000000     0          
T        Si     0.240333333333     0.731400000000     0.359766666667     0          
T        Si     0.290383333333     0.361400000000     0.617366666667     0          
T        Si     0.319750000000     0.445300000000     0.663400000000     0          
O        O      0.298133333333     0.762300000000     0.494733333333     0          
O        O      0.192500000000     0.817600000000     0.522466666667     0          
O        O      0.282033333333     0.102900000000     0.491900000000     0          
O        O      0.280033333333     0.033600000000     0.548000000000     0          
O        O      0.280933333333     0.026200000000     0.450933333333     0          
O        O      0.209983333333     0.055600000000     0.496033333333     0          
T        Si     0.176333333333     0.768600000000     0.526433333333     0          
T        Si     0.292950000000     0.138600000000     0.450700000000     0          
T        Si     0.263583333333     0.054700000000     0.496733333333     0          
O        O      0.298133333333     0.237700000000     0.661400000000     0          
O        O      0.192500000000     0.182400000000     0.355800000000     0          
O        O      0.166666666667     0.243300000000     0.416666666667     0          
O        O      0.282033333333     0.897100000000     0.658566666667     0          
O        O      0.250000000000     0.852900000000     0.583333333333     0          
O        O      0.166666666667     0.878200000000     0.583333333333     0          
O        O      0.280033333333     0.966400000000     0.381333333333     0          
O        O      0.280933333333     0.973800000000     0.617600000000     0          
O        O      0.209983333333     0.944400000000     0.662700000000     0          
T        Si     0.176333333333     0.231400000000     0.359766666667     0          
T        Si     0.292950000000     0.861400000000     0.617366666667     0          
T        Si     0.263583333333     0.945300000000     0.663400000000     0          
T        Si     0.250000000000     0.003800000000     0.583333333333     0          
O        O      0.285200000000     0.262300000000     0.494733333333     0          
O        O      0.224166666667     0.317600000000     0.522466666667     0          
O        O      0.250000000000     0.256700000000     0.583333333333     0          
O        O      0.301300000000     0.602900000000     0.491900000000     0          
O        O      0.166666666667     0.647100000000     0.416666666667     0          
O        O      0.250000000000     0.621800000000     0.416666666667     0          
O        O      0.303300000000     0.533600000000     0.548000000000     0          
O        O      0.302400000000     0.526200000000     0.450933333333     0          
O        O      0.206683333333     0.555600000000     0.496033333333     0          
T        Si     0.240333333333     0.268600000000     0.526433333333     0          
T        Si     0.290383333333     0.638600000000     0.450700000000     0          
T        Si     0.319750000000     0.554700000000     0.496733333333     0          
T        Si     0.166666666667     0.496200000000     0.416666666667     0          
O        O      0.214800000000     0.262300000000     0.338600000000     0          
O        O      0.275833333333     0.317600000000     0.644200000000     0          
O        O      0.198700000000     0.602900000000     0.341433333333     0          
O        O      0.196700000000     0.533600000000     0.618666666667     0          
O        O      0.197600000000     0.526200000000     0.382400000000     0          
O        O      0.293316666667     0.555600000000     0.337300000000     0          
T        Si     0.259666666667     0.268600000000     0.640233333333     0          
T        Si     0.209616666667     0.638600000000     0.382633333333     0          
T        Si     0.180250000000     0.554700000000     0.336600000000     0          
O        O      0.201866666667     0.237700000000     0.505266666667     0          
O        O      0.307500000000     0.182400000000     0.477533333333     0          
O        O      0.217966666667     0.897100000000     0.508100000000     0          
O        O      0.219966666667     0.966400000000     0.452000000000     0          
O        O      0.219066666667     0.973800000000     0.549066666667     0          
O        O      0.290016666667     0.944400000000     0.503966666667     0          
T        Si     0.323666666667     0.231400000000     0.473566666667     0          
T        Si     0.207050000000     0.861400000000     0.549300000000     0          
T        Si     0.236416666667     0.945300000000     0.503266666667     0          
O        O      0.201866666667     0.762300000000     0.671933333333     0          
O        O      0.307500000000     0.817600000000     0.977533333333     0          
O        O      0.166666666667     0.756700000000     0.916666666667     0          
O        O      0.217966666667     0.102900000000     0.674766666667     0          
O        O      0.250000000000     0.147100000000     0.750000000000     0          
O        O      0.166666666667     0.121800000000     0.750000000000     0          
O        O      0.219966666667     0.033600000000     0.952000000000     0          
O        O      0.219066666667     0.026200000000     0.715733333333     0          
O        O      0.290016666667     0.055600000000     0.670633333333     0          
T        Si     0.323666666667     0.768600000000     0.973566666667     0          
T        Si     0.207050000000     0.138600000000     0.715966666667     0          
T        Si     0.236416666667     0.054700000000     0.669933333333     0          
T        Si     0.250000000000     0.996200000000     0.750000000000     0          
O        O      0.214800000000     0.737700000000     0.838600000000     0          
O        O      0.275833333333     0.682400000000     0.810866666667     0          
O        O      0.250000000000     0.743300000000     0.750000000000     0          
O        O      0.198700000000     0.397100000000     0.841433333333     0          
O        O      0.166666666667     0.352900000000     0.916666666667     0          
O        O      0.250000000000     0.378200000000     0.916666666667     0          
O        O      0.196700000000     0.466400000000     0.785333333333     0          
O        O      0.197600000000     0.473800000000     0.882400000000     0          
O        O      0.293316666667     0.444400000000     0.837300000000     0          
T        Si     0.259666666667     0.731400000000     0.806900000000     0          
T        Si     0.209616666667     0.361400000000     0.882633333333     0          
T        Si     0.180250000000     0.445300000000     0.836600000000     0          
T        Si     0.166666666667     0.503800000000     0.916666666667     0          
O        O      0.285200000000     0.737700000000     0.994733333333     0          
O        O      0.224166666667     0.682400000000     0.689133333333     0          
O        O      0.301300000000     0.397100000000     0.991900000000     0          
O        O      0.303300000000     0.466400000000     0.714666666667     0          
O        O      0.302400000000     0.473800000000     0.950933333333     0          
O        O      0.206683333333     0.444400000000     0.996033333333     0          
T        Si     0.240333333333     0.731400000000     0.693100000000     0          
T        Si     0.290383333333     0.361400000000     0.950700000000     0          
T        Si     0.319750000000     0.445300000000     0.996733333333     0          
O        O      0.298133333333     0.762300000000     0.828066666667     0          
O        O      0.192500000000     0.817600000000     0.855800000000     0          
O        O      0.282033333333     0.102900000000     0.825233333333     0          
O        O      0.280033333333     0.033600000000     0.881333333333     0          
O        O      0.280933333333     0.026200000000     0.784266666667     0          
O        O      0.209983333333     0.055600000000     0.829366666667     0          
T        Si     0.176333333333     0.768600000000     0.859766666667     0          
T        Si     0.292950000000     0.138600000000     0.784033333333     0          
T        Si     0.263583333333     0.054700000000     0.830066666667     0          
O        O      0.298133333333     0.237700000000     0.994733333333     0          
O        O      0.192500000000     0.182400000000     0.689133333333     0          
O        O      0.166666666667     0.243300000000     0.750000000000     0          
O        O      0.282033333333     0.897100000000     0.991900000000     0          
O        O      0.250000000000     0.852900000000     0.916666666667     0          
O        O      0.166666666667     0.878200000000     0.916666666667     0          
O        O      0.280033333333     0.966400000000     0.714666666667     0          
O        O      0.280933333333     0.973800000000     0.950933333333     0          
O        O      0.209983333333     0.944400000000     0.996033333333     0          
T        Si     0.176333333333     0.231400000000     0.693100000000     0          
T        Si     0.292950000000     0.861400000000     0.950700000000     0          
T        Si     0.263583333333     0.945300000000     0.996733333333     0          
T        Si     0.250000000000     0.003800000000     0.916666666667     0          
O        O      0.285200000000     0.262300000000     0.828066666667     0          
O        O      0.224166666667     0.317600000000     0.855800000000     0          
O        O      0.250000000000     0.256700000000     0.916666666667     0          
O        O      0.301300000000     0.602900000000     0.825233333333     0          
O        O      0.166666666667     0.647100000000     0.750000000000     0          
O        O      0.250000000000     0.621800000000     0.750000000000     0          
O        O      0.303300000000     0.533600000000     0.881333333333     0          
O        O      0.302400000000     0.526200000000     0.784266666667     0          
O        O      0.206683333333     0.555600000000     0.829366666667     0          
T        Si     0.240333333333     0.268600000000     0.859766666667     0          
T        Si     0.290383333333     0.638600000000     0.784033333333     0          
T        Si     0.319750000000     0.554700000000     0.830066666667     0          
T        Si     0.166666666667     0.496200000000     0.750000000000     0          
O        O      0.214800000000     0.262300000000     0.671933333333     0          
O        O      0.275833333333     0.317600000000     0.977533333333     0          
O        O      0.198700000000     0.602900000000     0.674766666667     0          
O        O      0.196700000000     0.533600000000     0.952000000000     0          
O        O      0.197600000000     0.526200000000     0.715733333333     0          
O        O      0.293316666667     0.555600000000     0.670633333333     0          
T        Si     0.259666666667     0.268600000000     0.973566666667     0          
T        Si     0.209616666667     0.638600000000     0.715966666667     0          
T        Si     0.180250000000     0.554700000000     0.669933333333     0          
O        O      0.201866666667     0.237700000000     0.838600000000     0          
O        O      0.307500000000     0.182400000000     0.810866666667     0          
O        O      0.217966666667     0.897100000000     0.841433333333     0          
O        O      0.219966666667     0.966400000000     0.785333333333     0          
O        O      0.219066666667     0.973800000000     0.882400000000     0          
O        O      0.290016666667     0.944400000000     0.837300000000     0          
T        Si     0.323666666667     0.231400000000     0.806900000000     0          
T        Si     0.207050000000     0.861400000000     0.882633333333     0          
T        Si     0.236416666667     0.945300000000     0.836600000000     0          
O        O      0.368533333333     0.762300000000     0.005266666667     0          
O        O      0.474166666667     0.817600000000     0.310866666667     0          
O        O      0.333333333333     0.756700000000     0.250000000000     0          
O        O      0.384633333333     0.102900000000     0.008100000000     0          
O        O      0.416666666667     0.147100000000     0.083333333333     0          
O        O      0.333333333333     0.121800000000     0.083333333333     0          
O        O      0.386633333333     0.033600000000     0.285333333333     0          
O        O      0.385733333333     0.026200000000     0.049066666667     0          
O        O      0.456683333333     0.055600000000     0.003966666667     0          
T        Si     0.490333333333     0.768600000000     0.306900000000     0          
T        Si     0.373716666667     0.138600000000     0.049300000000     0          
T        Si     0.403083333333     0.054700000000     0.003266666667     0          
T        Si     0.416666666667     0.996200000000     0.083333333333     0          
O        O      0.381466666667     0.737700000000     0.171933333333     0          
O        O      0.442500000000     0.682400000000     0.144200000000     0          
O        O      0.416666666667     0.743300000000     0.083333333333     0          
O        O      0.365366666667     0.397100000000     0.174766666667     0          
O        O      0.333333333333     0.352900000000     0.250000000000     0          
O        O      0.416666666667     0.378200000000     0.250000000000     0          
O        O      0.363366666667     0.466400000000     0.118666666667     0          
O        O      0.364266666667     0.473800000000     0.215733333333     0          
O        O      0.459983333333     0.444400000000     0.170633333333     0          
T        Si     0.426333333333     0.731400000000     0.140233333333     0          
T        Si     0.376283333333     0.361400000000     0.215966666667     0          
T        Si     0.346916666667     0.445300000000     0.169933333333     0          
T        Si     0.333333333333     0.503800000000     0.250000000000     0          
O        O      0.451866666667     0.737700000000     0.328066666667     0          
O        O      0.390833333333     0.682400000000     0.022466666667     0          
O        O      0.467966666667     0.397100000000     0.325233333333     0          
O        O      0.469966666667     0.466400000000     0.048000000000     0          
O        O      0.469066666667     0.473800000000     0.284266666667     0          
O        O      0.373350000000     0.444400000000     0.329366666667     0          
T        Si     0.407000000000     0.731400000000     0.026433333333     0          
T        Si     0.457050000000     0.361400000000     0.284033333333     0          
T        Si     0.486416666667     0.445300000000     0.330066666667     0          
O        O      0.464800000000     0.762300000000     0.161400000000     0          
O        O      0.359166666667     0.817600000000     0.189133333333     0          
O        O      0.448700000000     0.102900000000     0.158566666667     0          
O        O      0.446700000000     0.033600000000     0.214666666667     0          
O        O      0.447600000000     0.026200000000     0.117600000000     0          
O        O      0.376650000000     0.055600000000     0.162700000000     0          
T        Si     0.343000000000     0.768600000000     0.193100000000     0          
T        Si     0.459616666667     0.138600000000     0.117366666667     0          
T        Si     0.430250000000     0.054700000000     0.163400000000     0          
O        O      0.464800000000     0.237700000000     0.328066666667     0          
O        O      0.359166666667     0.182400000000     0.022466666667     0          
O        O      0.333333333333     0.243300000000     0.083333333333     0          
O        O      0.448700000000     0.897100000000     0.325233333333     0          
O        O      0.416666666667     0.852900000000     0.250000000000     0          
O        O      0.333333333333     0.878200000000     0.250000000000     0          
O        O      0.446700000000     0.966400000000     0.048000000000     0          
O        O      0.447600000000     0.973800000000     0.284266666667     0          
O        O      0.376650000000     0.944400000000     0.329366666667     0          
T        Si     0.343000000000     0.231400000000     0.026433333333     0          
T        Si     0.459616666667     0.861400000000     0.284033333333     0          
T        Si     0.430250000000     0.945300000000     0.330066666667     0          
T        Si     0.416666666667     0.003800000000     0.250000000000     0          
O        O      0.451866666667     0.262300000000     0.161400000000     0          
O        O      0.390833333333     0.317600000000     0.189133333333     0          
O        O      0.416666666667     0.256700000000     0.250000000000     0          
O        O      0.467966666667     0.602900000000     0.158566666667     0          
O        O      0.333333333333     0.647100000000     0.083333333333     0          
O        O      0.416666666667     0.621800000000     0.083333333333     0          
O        O      0.469966666667     0.533600000000     0.214666666667     0          
O        O      0.469066666667     0.526200000000     0.117600000000     0          
O        O      0.373350000000     0.555600000000     0.162700000000     0          
T        Si     0.407000000000     0.268600000000     0.193100000000     0          
T        Si     0.457050000000     0.638600000000     0.117366666667     0          
T        Si     0.486416666667     0.554700000000     0.163400000000     0          
T        Si     0.333333333333     0.496200000000     0.083333333333     0          
O        O      0.381466666667     0.262300000000     0.005266666667     0          
O        O      0.442500000000     0.317600000000     0.310866666667     0          
O        O      0.365366666667     0.602900000000     0.008100000000     0          
O        O      0.363366666667     0.533600000000     0.285333333333     0          
O        O      0.364266666667     0.526200000000     0.049066666667     0          
O        O      0.459983333333     0.555600000000     0.003966666667     0          
T        Si     0.426333333333     0.268600000000     0.306900000000     0          
T        Si     0.376283333333     0.638600000000     0.049300000000     0          
T        Si     0.346916666667     0.554700000000     0.003266666667     0          
O        O      0.368533333333     0.237700000000     0.171933333333     0          
O        O      0.474166666667     0.182400000000     0.144200000000     0          
O        O      0.384633333333     0.897100000000     0.174766666667     0          
O        O      0.386633333333     0.966400000000     0.118666666667     0          
O        O      0.385733333333     0.973800000000     0.215733333333     0          
O        O      0.456683333333     0.944400000000     0.170633333333     0          
T        Si     0.490333333333     0.231400000000     0.140233333333     0          
T        Si     0.373716666667     0.861400000000     0.215966666667     0          
T        Si     0.403083333333     0.945300000000     0.169933333333     0          
O        O      0.368533333333     0.762300000000     0.338600000000     0          
O        O      0.474166666667     0.817600000000     0.644200000000     0          
O        O      0.333333333333     0.756700000000     0.583333333333     0          
O        O      0.384633333333     0.102900000000     0.341433333333     0          
O        O      0.416666666667     0.147100000000     0.416666666667     0          
O        O      0.333333333333     0.121800000000     0.416666666667     0          
O        O      0.386633333333     0.033600000000     0.618666666667     0          
O        O      0.385733333333     0.026200000000     0.382400000000     0          
O        O      0.456683333333     0.055600000000     0.337300000000     0          
T        Si     0.490333333333     0.768600000000     0.640233333333     0          
T        Si     0.373716666667     0.138600000000     0.382633333333     0          
T        Si     0.403083333333     0.054700000000     0.336600000000     0          
T        Si     0.416666666667     0.996200000000     0.416666666667     0          
O        O      0.381466666667     0.737700000000     0.505266666667     0          
O        O      0.442500000000     0.682400000000     0.477533333333     0          
O        O      0.416666666667     0.743300000000     0.416666666667     0          
O        O      0.365366666667     0.397100000000     0.508100000000     0          
O        O      0.333333333333     0.352900000000     0.583333333333     0          
O        O      0.416666666667     0.378200000000     0.583333333333     0          
O        O      0.363366666667     0.466400000000     0.452000000000     0          
O        O      0.364266666667     0.473800000000     0.549066666667     0          
O        O      0.459983333333     0.444400000000     0.503966666667     0          
T        Si     0.426333333333     0.731400000000     0.473566666667     0          
T        Si     0.376283333333     0.361400000000     0.549300000000     0          
T        Si     0.346916666667     0.445300000000     0.503266666667     0          
T        Si     0.333333333333     0.503800000000     0.583333333333     0          
O        O      0.451866666667     0.737700000000     0.661400000000     0          
O        O      0.390833333333     0.682400000000     0.355800000000     0          
O        O      0.467966666667     0.397100000000     0.658566666667     0          
O        O      0.469966666667     0.466400000000     0.381333333333     0          
O        O      0.469066666667     0.473800000000     0.617600000000     0          
O        O      0.373350000000     0.444400000000     0.662700000000     0          
T        Si     0.407000000000     0.731400000000     0.359766666667     0          
T        Si     0.457050000000     0.361400000000     0.617366666667     0          
T        Si     0.486416666667     0.445300000000     0.663400000000     0          
O        O      0.464800000000     0.762300000000     0.494733333333     0          
O        O      0.359166666667     0.817600000000     0.522466666667     0          
O        O      0.448700000000     0.102900000000     0.491900000000     0          
O        O      0.446700000000     0.033600000000     0.548000000000     0          
O        O      0.447600000000     0.026200000000     0.450933333333     0          
O        O      0.376650000000     0.055600000000     0.496033333333     0          
T        Si     0.343000000000     0.768600000000     0.526433333333     0          
T        Si     0.459616666667     0.138600000000     0.450700000000     0          
T        Si     0.430250000000     0.054700000000     0.496733333333     0          
O        O      0.464800000000     0.237700000000     0.661400000000     0          
O        O      0.359166666667     0.182400000000     0.355800000000     0          
O        O      0.333333333333     0.243300000000     0.416666666667     0          
O        O      0.448700000000     0.897100000000     0.658566666667     0          
O        O      0.416666666667     0.852900000000     0.583333333333     0          
O        O      0.333333333333     0.878200000000     0.583333333333     0          
O        O      0.446700000000     0.966400000000     0.381333333333     0          
O        O      0.447600000000     0.973800000000     0.617600000000     0          
O        O      0.376650000000     0.944400000000     0.662700000000     0          
T        Si     0.343000000000     0.231400000000     0.359766666667     0          
T        Si     0.459616666667     0.861400000000     0.617366666667     0          
T        Si     0.430250000000     0.945300000000     0.663400000000     0          
T        Si     0.416666666667     0.003800000000     0.583333333333     0          
O        O      0.451866666667     0.262300000000     0.494733333333     0          
O        O      0.390833333333     0.317600000000     0.522466666667     0          
O        O      0.416666666667     0.256700000000     0.583333333333     0          
O        O      0.467966666667     0.602900000000     0.491900000000     0          
O        O      0.333333333333     0.647100000000     0.416666666667     0          
O        O      0.416666666667     0.621800000000     0.416666666667     0          
O        O      0.469966666667     0.533600000000     0.548000000000     0          
O        O      0.469066666667     0.526200000000     0.450933333333     0          
O        O      0.373350000000     0.555600000000     0.496033333333     0          
T        Si     0.407000000000     0.268600000000     0.526433333333     0          
T        Si     0.457050000000     0.638600000000     0.450700000000     0          
T        Si     0.486416666667     0.554700000000     0.496733333333     0          
T        Si     0.333333333333     0.496200000000     0.416666666667     0          
O        O      0.381466666667     0.262300000000     0.338600000000     0          
O        O      0.442500000000     0.317600000000     0.644200000000     0          
O        O      0.365366666667     0.602900000000     0.341433333333     0          
O        O      0.363366666667     0.533600000000     0.618666666667     0          
O        O      0.364266666667     0.526200000000     0.382400000000     0          
O        O      0.459983333333     0.555600000000     0.337300000000     0          
T        Si     0.426333333333     0.268600000000     0.640233333333     0          
T        Si     0.376283333333     0.638600000000     0.382633333333     0          
T        Si     0.346916666667     0.554700000000     0.336600000000     0          
O        O      0.368533333333     0.237700000000     0.505266666667     0          
O        O      0.474166666667     0.182400000000     0.477533333333     0          
O        O      0.384633333333     0.897100000000     0.508100000000     0          
O        O      0.386633333333     0.966400000000     0.452000000000     0          
O        O      0.385733333333     0.973800000000     0.549066666667     0          
O        O      0.456683333333     0.944400000000     0.503966666667     0          
T        Si     0.490333333333     0.231400000000     0.473566666667     0          
T        Si     0.373716666667     0.861400000000     0.549300000000     0          
T        Si     0.403083333333     0.945300000000     0.503266666667     0          
O        O      0.368533333333     0.762300000000     0.671933333333     0          
O        O      0.474166666667     0.817600000000     0.977533333333     0          
O        O      0.333333333333     0.756700000000     0.916666666667     0          
O        O      0.384633333333     0.102900000000     0.674766666667     0          
O        O      0.416666666667     0.147100000000     0.750000000000     0          
O        O      0.333333333333     0.121800000000     0.750000000000     0          
O        O      0.386633333333     0.033600000000     0.952000000000     0          
O        O      0.385733333333     0.026200000000     0.715733333333     0          
O        O      0.456683333333     0.055600000000     0.670633333333     0          
T        Si     0.490333333333     0.768600000000     0.973566666667     0          
T        Si     0.373716666667     0.138600000000     0.715966666667     0          
T        Si     0.403083333333     0.054700000000     0.669933333333     0          
T        Si     0.416666666667     0.996200000000     0.750000000000     0          
O        O      0.381466666667     0.737700000000     0.838600000000     0          
O        O      0.442500000000     0.682400000000     0.810866666667     0          
O        O      0.416666666667     0.743300000000     0.750000000000     0          
O        O      0.365366666667     0.397100000000     0.841433333333     0          
O        O      0.333333333333     0.352900000000     0.916666666667     0          
O        O      0.416666666667     0.378200000000     0.916666666667     0          
O        O      0.363366666667     0.466400000000     0.785333333333     0          
O        O      0.364266666667     0.473800000000     0.882400000000     0          
O        O      0.459983333333     0.444400000000     0.837300000000     0          
T        Si     0.426333333333     0.731400000000     0.806900000000     0          
T        Si     0.376283333333     0.361400000000     0.882633333333     0          
T        Si     0.346916666667     0.445300000000     0.836600000000     0          
T        Si     0.333333333333     0.503800000000     0.916666666667     0          
O        O      0.451866666667     0.737700000000     0.994733333333     0          
O        O      0.390833333333     0.682400000000     0.689133333333     0          
O        O      0.467966666667     0.397100000000     0.991900000000     0          
O        O      0.469966666667     0.466400000000     0.714666666667     0          
O        O      0.469066666667     0.473800000000     0.950933333333     0          
O        O      0.373350000000     0.444400000000     0.996033333333     0          
T        Si     0.407000000000     0.731400000000     0.693100000000     0          
T        Si     0.457050000000     0.361400000000     0.950700000000     0          
T        Si     0.486416666667     0.445300000000     0.996733333333     0          
O        O      0.464800000000     0.762300000000     0.828066666667     0          
O        O      0.359166666667     0.817600000000     0.855800000000     0          
O        O      0.448700000000     0.102900000000     0.825233333333     0          
O        O      0.446700000000     0.033600000000     0.881333333333     0          
O        O      0.447600000000     0.026200000000     0.784266666667     0          
O        O      0.376650000000     0.055600000000     0.829366666667     0          
T        Si     0.343000000000     0.768600000000     0.859766666667     0          
T        Si     0.459616666667     0.138600000000     0.784033333333     0          
T        Si     0.430250000000     0.054700000000     0.830066666667     0          
O        O      0.464800000000     0.237700000000     0.994733333333     0          
O        O      0.359166666667     0.182400000000     0.689133333333     0          
O        O      0.333333333333     0.243300000000     0.750000000000     0          
O        O      0.448700000000     0.897100000000     0.991900000000     0          
O        O      0.416666666667     0.852900000000     0.916666666667     0          
O        O      0.333333333333     0.878200000000     0.916666666667     0          
O        O      0.446700000000     0.966400000000     0.714666666667     0          
O        O      0.447600000000     0.973800000000     0.950933333333     0          
O        O      0.376650000000     0.944400000000     0.996033333333     0          
T        Si     0.343000000000     0.231400000000     0.693100000000     0          
T        Si     0.459616666667     0.861400000000     0.950700000000     0          
T        Si     0.430250000000     0.945300000000     0.996733333333     0          
T        Si     0.416666666667     0.003800000000     0.916666666667     0          
O        O      0.451866666667     0.262300000000     0.828066666667     0          
O        O      0.390833333333     0.317600000000     0.855800000000     0          
O        O      0.416666666667     0.256700000000     0.916666666667     0          
O        O      0.467966666667     0.602900000000     0.825233333333     0          
O        O      0.333333333333     0.647100000000     0.750000000000     0          
O        O      0.416666666667     0.621800000000     0.750000000000     0          
O        O      0.469966666667     0.533600000000     0.881333333333     0          
O        O      0.469066666667     0.526200000000     0.784266666667     0          
O        O      0.373350000000     0.555600000000     0.829366666667     0          
T        Si     0.407000000000     0.268600000000     0.859766666667     0          
T        Si     0.457050000000     0.638600000000     0.784033333333     0          
T        Si     0.486416666667     0.554700000000     0.830066666667     0          
T        Si     0.333333333333     0.496200000000     0.750000000000     0          
O        O      0.381466666667     0.262300000000     0.671933333333     0          
O        O      0.442500000000     0.317600000000     0.977533333333     0          
O        O      0.365366666667     0.602900000000     0.674766666667     0          
O        O      0.363366666667     0.533600000000     0.952000000000     0          
O        O      0.364266666667     0.526200000000     0.715733333333     0          
O        O      0.459983333333     0.555600000000     0.670633333333     0          
T        Si     0.426333333333     0.268600000000     0.973566666667     0          
T        Si     0.376283333333     0.638600000000     0.715966666667     0          
T        Si     0.346916666667     0.554700000000     0.669933333333     0          
O        O      0.368533333333     0.237700000000     0.838600000000     0          
O        O      0.474166666667     0.182400000000     0.810866666667     0          
O        O      0.384633333333     0.897100000000     0.841433333333     0          
O        O      0.386633333333     0.966400000000     0.785333333333     0          
O        O      0.385733333333     0.973800000000     0.882400000000     0          
O        O      0.456683333333     0.944400000000     0.837300000000     0          
T        Si     0.490333333333     0.231400000000     0.806900000000     0          
T        Si     0.373716666667     0.861400000000     0.882633333333     0          
T        Si     0.403083333333     0.945300000000     0.836600000000     0          
O        O      0.535200000000     0.762300000000     0.005266666667     0          
O        O      0.640833333333     0.817600000000     0.310866666667     0          
O        O      0.500000000000     0.756700000000     0.250000000000     0          
O        O      0.551300000000     0.102900000000     0.008100000000     0          
O        O      0.583333333333     0.147100000000     0.083333333333     0          
O        O      0.500000000000     0.121800000000     0.083333333333     0          
O        O      0.553300000000     0.033600000000     0.285333333333     0          
O        O      0.552400000000     0.026200000000     0.049066666667     0          
O        O      0.623350000000     0.055600000000     0.003966666667     0          
T        Si     0.657000000000     0.768600000000     0.306900000000     0          
T        Si     0.540383333333     0.138600000000     0.049300000000     0          
T        Si     0.569750000000     0.054700000000     0.003266666667     0          
T        Si     0.583333333333     0.996200000000     0.083333333333     0          
O        O      0.548133333333     0.737700000000     0.171933333333     0          
O        O      0.609166666667     0.682400000000     0.144200000000     0          
O        O      0.583333333333     0.743300000000     0.083333333333     0          
O        O      0.532033333333     0.397100000000     0.174766666667     0          
O        O      0.500000000000     0.352900000000     0.250000000000     0          
O        O      0.583333333333     0.378200000000     0.250000000000     0          
O        O      0.530033333333     0.466400000000     0.118666666667     0          
O        O      0.530933333333     0.473800000000     0.215733333333     0          
O        O      0.626650000000     0.444400000000     0.170633333333     0          
T        Si     0.593000000000     0.731400000000     0.140233333333     0          
T        Si     0.542950000000     0.361400000000     0.215966666667     0          
T        Si     0.513583333333     0.445300000000     0.169933333333     0          
T        Si     0.500000000000     0.503800000000     0.250000000000     0          
O        O      0.618533333333     0.737700000000     0.328066666667     0          
O        O      0.557500000000     0.682400000000     0.022466666667     0          
O        O      0.634633333333     0.397100000000     0.325233333333     0          
O        O      0.636633333333     0.466400000000     0.048000000000     0          
O        O      0.635733333333     0.473800000000     0.284266666667     0          
O        O      0.540016666667     0.444400000000     0.329366666667     0          
T        Si     0.573666666667     0.731400000000     0.026433333333     0          
T        Si     0.623716666667     0.361400000000     0.284033333333     0          
T        Si     0.653083333333     0.445300000000     0.330066666667     0          
O        O      0.631466666667     0.762300000000     0.161400000000     0          
O        O      0.525833333333     0.817600000000     0.189133333333     0          
O        O      0.615366666667     0.102900000000     0.158566666667     0          
O        O      0.613366666667     0.033600000000     0.214666666667     0          
O        O      0.614266666667     0.026200000000     0.117600000000     0          
O        O      0.543316666667     0.055600000000     0.162700000000     0          
T        Si     0.509666666667     0.768600000000     0.193100000000     0          
T        Si     0.626283333333     0.138600000000     0.117366666667     0          
T        Si     0.596916666667     0.054700000000     0.163400000000     0          
O        O      0.631466666667     0.237700000000     0.328066666667     0          
O        O      0.525833333333     0.182400000000     0.022466666667     0          
O        O      0.500000000000     0.243300000000     0.083333333333     0          
O        O      0.615366666667     0.897100000000     0.325233333333     0          
O        O      0.583333333333     0.852900000000     0.250000000000     0          
O        O      0.500000000000     0.878200000000     0.250000000000     0          
O        O      0.613366666667     0.966400000000     0.048000000000     0          
O        O      0.614266666667     0.973800000000     0.284266666667     0          
O        O      0.543316666667     0.944400000000     0.329366666667     0          
T        Si     0.509666666667     0.231400000000     0.026433333333     0          
T        Si     0.626283333333     0.861400000000     0.284033333333     0          
T        Si     0.596916666667     0.945300000000     0.330066666667     0          
T        Si     0.583333333333     0.003800000000     0.250000000000     0          
O        O      0.618533333333     0.262300000000     0.161400000000     0          
O        O      0.557500000000     0.317600000000     0.189133333333     0          
O        O      0.583333333333     0.256700000000     0.250000000000     0          
O        O      0.634633333333     0.602900000000     0.158566666667     0          
O        O      0.500000000000     0.647100000000     0.083333333333     0          
O        O      0.583333333333     0.621800000000     0.083333333333     0          
O        O      0.636633333333     0.533600000000     0.214666666667     0          
O        O      0.635733333333     0.526200000000     0.117600000000     0          
O        O      0.540016666667     0.555600000000     0.162700000000     0          
T        Si     0.573666666667     0.268600000000     0.193100000000     0          
T        Si     0.623716666667     0.638600000000     0.117366666667     0          
T        Si     0.653083333333     0.554700000000     0.163400000000     0          
T        Si     0.500000000000     0.496200000000     0.083333333333     0          
O        O      0.548133333333     0.262300000000     0.005266666667     0          
O        O      0.609166666667     0.317600000000     0.310866666667     0          
O        O      0.532033333333     0.602900000000     0.008100000000     0          
O        O      0.530033333333     0.533600000000     0.285333333333     0          
O        O      0.530933333333     0.526200000000     0.049066666667     0          
O        O      0.626650000000     0.555600000000     0.003966666667     0          
T        Si     0.593000000000     0.268600000000     0.306900000000     0          
T        Si     0.542950000000     0.638600000000     0.049300000000     0          
T        Si     0.513583333333     0.554700000000     0.003266666667     0          
O        O      0.535200000000     0.237700000000     0.171933333333     0          
O        O      0.640833333333     0.182400000000     0.144200000000     0          
O        O      0.551300000000     0.897100000000     0.174766666667     0          
O        O      0.553300000000     0.966400000000     0.118666666667     0          
O        O      0.552400000000     0.973800000000     0.215733333333     0          
O        O      0.623350000000     0.944400000000     0.170633333333     0          
T        Si     0.657000000000     0.231400000000     0.140233333333     0          
T        Si     0.540383333333     0.861400000000     0.215966666667     0          
T        Si     0.569750000000     0.945300000000     0.169933333333     0          
O        O      0.535200000000     0.762300000000     0.338600000000     0          
O        O      0.640833333333     0.817600000000     0.644200000000     0          
O        O      0.500000000000     0.756700000000     0.583333333333     0          
O        O      0.551300000000     0.102900000000     0.341433333333     0          
O        O      0.583333333333     0.147100000000     0.416666666667     0          
O        O      0.500000000000     0.121800000000     0.416666666667     0          
O        O      0.553300000000     0.033600000000     0.618666666667     0          
O        O      0.552400000000     0.026200000000     0.382400000000     0          
O        O      0.623350000000     0.055600000000     0.337300000000     0          
T        Si     0.657000000000     0.768600000000     0.640233333333     0          
T        Si     0.540383333333     0.138600000000     0.382633333333     0          
T        Si     0.569750000000     0.054700000000     0.336600000000     0          
T        Si     0.583333333333     0.996200000000     0.416666666667     0          
O        O      0.548133333333     0.737700000000     0.505266666667     0          
O        O      0.609166666667     0.682400000000     0.477533333333     0          
O        O      0.583333333333     0.743300000000     0.416666666667     0          
O        O      0.532033333333     0.397100000000     0.508100000000     0          
O        O      0.500000000000     0.352900000000     0.583333333333     0          
O        O      0.583333333333     0.378200000000     0.583333333333     0          
O        O      0.530033333333     0.466400000000     0.452000000000     0          
O        O      0.530933333333     0.473800000000     0.549066666667     0          
O        O      0.626650000000     0.444400000000     0.503966666667     0          
T        Si     0.593000000000     0.731400000000     0.473566666667     0          
T        Si     0.542950000000     0.361400000000     0.549300000000     0          
T        Si     0.513583333333     0.445300000000     0.503266666667     0          
T        Si     0.500000000000     0.503800000000     0.583333333333     0          
O        O      0.618533333333     0.737700000000     0.661400000000     0          
O        O      0.557500000000     0.682400000000     0.355800000000     0          
O        O      0.634633333333     0.397100000000     0.658566666667     0          
O        O      0.636633333333     0.466400000000     0.381333333333     0          
O        O      0.635733333333     0.473800000000     0.617600000000     0          
O        O      0.540016666667     0.444400000000     0.662700000000     0          
T        Si     0.573666666667     0.731400000000     0.359766666667     0          
T        Si     0.623716666667     0.361400000000     0.617366666667     0          
T        Si     0.653083333333     0.445300000000     0.663400000000     0          
O        O      0.631466666667     0.762300000000     0.494733333333     0          
O        O      0.525833333333     0.817600000000     0.522466666667     0          
O        O      0.615366666667     0.102900000000     0.491900000000     0          
O        O      0.613366666667     0.033600000000     0.548000000000     0          
O        O      0.614266666667     0.026200000000     0.450933333333     0          
O        O      0.543316666667     0.055600000000     0.496033333333     0          
T        Si     0.509666666667     0.768600000000     0.526433333333     0          
T        Si     0.626283333333     0.138600000000     0.450700000000     0          
T        Si     0.596916666667     0.054700000000     0.496733333333     0          
O        O      0.631466666667     0.237700000000     0.661400000000     0          
O        O      0.525833333333     0.182400000000     0.355800000000     0          
O        O      0.500000000000     0.243300000000     0.416666666667     0          
O        O      0.615366666667     0.897100000000     0.658566666667     0          
O        O      0.583333333333     0.852900000000     0.583333333333     0          
O        O      0.500000000000     0.878200000000     0.583333333333     0          
O        O      0.613366666667     0.966400000000     0.381333333333     0          
O        O      0.614266666667     0.973800000000     0.617600000000     0          
O        O      0.543316666667     0.944400000000     0.662700000000     0          
T        Si     0.509666666667     0.231400000000     0.359766666667     0          
T        Si     0.626283333333     0.861400000000     0.617366666667     0          
T        Si     0.596916666667     0.945300000000     0.663400000000     0          
T        Si     0.583333333333     0.003800000000     0.583333333333     0          
O        O      0.618533333333     0.262300000000     0.494733333333     0          
O        O      0.557500000000     0.317600000000     0.522466666667     0          
O        O      0.583333333333     0.256700000000     0.583333333333     0          
O        O      0.634633333333     0.602900000000     0.491900000000     0          
O        O      0.500000000000     0.647100000000     0.416666666667     0          
O        O      0.583333333333     0.621800000000     0.416666666667     0          
O        O      0.636633333333     0.533600000000     0.548000000000     0          
O        O      0.635733333333     0.526200000000     0.450933333333     0          
O        O      0.540016666667     0.555600000000     0.496033333333     0          
T        Si     0.573666666667     0.268600000000     0.526433333333     0          
T        Si     0.623716666667     0.638600000000     0.450700000000     0          
T        Si     0.653083333333     0.554700000000     0.496733333333     0          
T        Si     0.500000000000     0.496200000000     0.416666666667     0          
O        O      0.548133333333     0.262300000000     0.338600000000     0          
O        O      0.609166666667     0.317600000000     0.644200000000     0          
O        O      0.532033333333     0.602900000000     0.341433333333     0          
O        O      0.530033333333     0.533600000000     0.618666666667     0          
O        O      0.530933333333     0.526200000000     0.382400000000     0          
O        O      0.626650000000     0.555600000000     0.337300000000     0          
T        Si     0.593000000000     0.268600000000     0.640233333333     0          
T        Si     0.542950000000     0.638600000000     0.382633333333     0          
T        Si     0.513583333333     0.554700000000     0.336600000000     0          
O        O      0.535200000000     0.237700000000     0.505266666667     0          
O        O      0.640833333333     0.182400000000     0.477533333333     0          
O        O      0.551300000000     0.897100000000     0.508100000000     0          
O        O      0.553300000000     0.966400000000     0.452000000000     0          
O        O      0.552400000000     0.973800000000     0.549066666667     0          
O        O      0.623350000000     0.944400000000     0.503966666667     0          
T        Si     0.657000000000     0.231400000000     0.473566666667     0          
T        Si     0.540383333333     0.861400000000     0.549300000000     0          
T        Si     0.569750000000     0.945300000000     0.503266666667     0          
O        O      0.535200000000     0.762300000000     0.671933333333     0          
O        O      0.640833333333     0.817600000000     0.977533333333     0          
O        O      0.500000000000     0.756700000000     0.916666666667     0          
O        O      0.551300000000     0.102900000000     0.674766666667     0          
O        O      0.583333333333     0.147100000000     0.750000000000     0          
O        O      0.500000000000     0.121800000000     0.750000000000     0          
O        O      0.553300000000     0.033600000000     0.952000000000     0          
O        O      0.552400000000     0.026200000000     0.715733333333     0          
O        O      0.623350000000     0.055600000000     0.670633333333     0          
T        Si     0.657000000000     0.768600000000     0.973566666667     0          
T        Si     0.540383333333     0.138600000000     0.715966666667     0          
T        Si     0.569750000000     0.054700000000     0.669933333333     0          
T        Si     0.583333333333     0.996200000000     0.750000000000     0          
O        O      0.548133333333     0.737700000000     0.838600000000     0          
O        O      0.609166666667     0.682400000000     0.810866666667     0          
O        O      0.583333333333     0.743300000000     0.750000000000     0          
O        O      0.532033333333     0.397100000000     0.841433333333     0          
O        O      0.500000000000     0.352900000000     0.916666666667     0          
O        O      0.583333333333     0.378200000000     0.916666666667     0          
O        O      0.530033333333     0.466400000000     0.785333333333     0          
O        O      0.530933333333     0.473800000000     0.882400000000     0          
O        O      0.626650000000     0.444400000000     0.837300000000     0          
T        Si     0.593000000000     0.731400000000     0.806900000000     0          
T        Si     0.542950000000     0.361400000000     0.882633333333     0          
T        Si     0.513583333333     0.445300000000     0.836600000000     0          
T        Si     0.500000000000     0.503800000000     0.916666666667     0          
O        O      0.618533333333     0.737700000000     0.994733333333     0          
O        O      0.557500000000     0.682400000000     0.689133333333     0          
O        O      0.634633333333     0.397100000000     0.991900000000     0          
O        O      0.636633333333     0.466400000000     0.714666666667     0          
O        O      0.635733333333     0.473800000000     0.950933333333     0          
O        O      0.540016666667     0.444400000000     0.996033333333     0          
T        Si     0.573666666667     0.731400000000     0.693100000000     0          
T        Si     0.623716666667     0.361400000000     0.950700000000     0          
T        Si     0.653083333333     0.445300000000     0.996733333333     0          
O        O      0.631466666667     0.762300000000     0.828066666667     0          
O        O      0.525833333333     0.817600000000     0.855800000000     0          
O        O      0.615366666667     0.102900000000     0.825233333333     0          
O        O      0.613366666667     0.033600000000     0.881333333333     0          
O        O      0.614266666667     0.026200000000     0.784266666667     0          
O        O      0.543316666667     0.055600000000     0.829366666667     0          
T        Si     0.509666666667     0.768600000000     0.859766666667     0          
T        Si     0.626283333333     0.138600000000     0.784033333333     0          
T        Si     0.596916666667     0.054700000000     0.830066666667     0          
O        O      0.631466666667     0.237700000000     0.994733333333     0          
O        O      0.525833333333     0.182400000000     0.689133333333     0          
O        O      0.500000000000     0.243300000000     0.750000000000     0          
O        O      0.615366666667     0.897100000000     0.991900000000     0          
O        O      0.583333333333     0.852900000000     0.916666666667     0          
O        O      0.500000000000     0.878200000000     0.916666666667     0          
O        O      0.613366666667     0.966400000000     0.714666666667     0          
O        O      0.614266666667     0.973800000000     0.950933333333     0          
O        O      0.543316666667     0.944400000000     0.996033333333     0          
T        Si     0.509666666667     0.231400000000     0.693100000000     0          
T        Si     0.626283333333     0.861400000000     0.950700000000     0          
T        Si     0.596916666667     0.945300000000     0.996733333333     0          
T        Si     0.583333333333     0.003800000000     0.916666666667     0          
O        O      0.618533333333     0.262300000000     0.828066666667     0          
O        O      0.557500000000     0.317600000000     0.855800000000     0          
O        O      0.583333333333     0.256700000000     0.916666666667     0          
O        O      0.634633333333     0.602900000000     0.825233333333     0          
O        O      0.500000000000     0.647100000000     0.750000000000     0          
O        O      0.583333333333     0.621800000000     0.750000000000     0          
O        O      0.636633333333     0.533600000000     0.881333333333     0          
O        O      0.635733333333     0.526200000000     0.784266666667     0          
O        O      0.540016666667     0.555600000000     0.829366666667     0          
T        Si     0.573666666667     0.268600000000     0.859766666667     0          
T        Si     0.623716666667     0.638600000000     0.784033333333     0          
T        Si     0.653083333333     0.554700000000     0.830066666667     0          
T        Si     0.500000000000     0.496200000000     0.750000000000     0          
O        O      0.548133333333     0.262300000000     0.671933333333     0          
O        O      0.609166666667     0.317600000000     0.977533333333     0          
O        O      0.532033333333     0.602900000000     0.674766666667     0          
O        O      0.530033333333     0.533600000000     0.952000000000     0          
O        O      0.530933333333     0.526200000000     0.715733333333     0          
O        O      0.626650000000     0.555600000000     0.670633333333     0          
T        Si     0.593000000000     0.268600000000     0.973566666667     0          
T        Si     0.542950000000     0.638600000000     0.715966666667     0          
T        Si     0.513583333333     0.554700000000     0.669933333333     0          
O        O      0.535200000000     0.237700000000     0.838600000000     0          
O        O      0.640833333333     0.182400000000     0.810866666667     0          
O        O      0.551300000000     0.897100000000     0.841433333333     0          
O        O      0.553300000000     0.966400000000     0.785333333333     0          
O        O      0.552400000000     0.973800000000     0.882400000000     0          
O        O      0.623350000000     0.944400000000     0.837300000000     0          
T        Si     0.657000000000     0.231400000000     0.806900000000     0          
T        Si     0.540383333333     0.861400000000     0.882633333333     0          
T        Si     0.569750000000     0.945300000000     0.836600000000     0          
O        O      0.701866666667     0.762300000000     0.005266666667     0          
O        O      0.807500000000     0.817600000000     0.310866666667     0          
O        O      0.666666666667     0.756700000000     0.250000000000     0          
O        O      0.717966666667     0.102900000000     0.008100000000     0          
O        O      0.750000000000     0.147100000000     0.083333333333     0          
O        O      0.666666666667     0.121800000000     0.083333333333     0          
O        O      0.719966666667     0.033600000000     0.285333333333     0          
O        O      0.719066666667     0.026200000000     0.049066666667     0          
O        O      0.790016666667     0.055600000000     0.003966666667     0          
T        Si     0.823666666667     0.768600000000     0.306900000000     0          
T        Si     0.707050000000     0.138600000000     0.049300000000     0          
T        Si     0.736416666667     0.054700000000     0.003266666667     0          
T        Si     0.750000000000     0.996200000000     0.083333333333     0          
O        O      0.714800000000     0.737700000000     0.171933333333     0          
O        O      0.775833333333     0.682400000000     0.144200000000     0          
O        O      0.750000000000     0.743300000000     0.083333333333     0          
O        O      0.698700000000     0.397100000000     0.174766666667     0          
O        O      0.666666666667     0.352900000000     0.250000000000     0          
O        O      0.750000000000     0.378200000000     0.250000000000     0          
O        O      0.696700000000     0.466400000000     0.118666666667     0          
O        O      0.697600000000     0.473800000000     0.215733333333     0          
O        O      0.793316666667     0.444400000000     0.170633333333     0          
T        Si     0.759666666667     0.731400000000     0.140233333333     0          
T        Si     0.709616666667     0.361400000000     0.215966666667     0          
T        Si     0.680250000000     0.445300000000     0.169933333333     0          
T        Si     0.666666666667     0.503800000000     0.250000000000     0          
O        O      0.785200000000     0.737700000000     0.328066666667     0          
O        O      0.724166666667     0.682400000000     0.022466666667     0          
O        O      0.801300000000     0.397100000000     0.325233333333     0          
O        O      0.803300000000     0.466400000000     0.048000000000     0          
O        O      0.802400000000     0.473800000000     0.284266666667     0          
O        O      0.706683333333     0.444400000000     0.329366666667     0          
T        Si     0.740333333333     0.731400000000     0.026433333333     0          
T        Si     0.790383333333     0.361400000000     0.284033333333     0          
T        Si     0.819750000000     0.445300000000     0.330066666667     0          
O        O      0.798133333333     0.762300000000     0.161400000000     0          
O        O      0.692500000000     0.817600000000     0.189133333333     0          
O        O      0.782033333333     0.102900000000     0.158566666667     0          
O        O      0.780033333333     0.033600000000     0.214666666667     0          
O        O      0.780933333333     0.026200000000     0.117600000000     0          
O        O      0.709983333333     0.055600000000     0.162700000000     0          
T        Si     0.676333333333     0.768600000000     0.193100000000     0          
T        Si     0.792950000000     0.138600000000     0.117366666667     0          
T        Si     0.763583333333     0.054700000000     0.163400000000     0          
O        O      0.798133333333     0.237700000000     0.328066666667     0          
O        O      0.692500000000     0.182400000000     0.022466666667     0          
O        O      0.666666666667     0.243300000000     0.083333333333     0          
O        O      0.782033333333     0.897100000000     0.325233333333     0          
O        O      0.750000000000     0.852900000000     0.250000000000     0          
O        O      0.666666666667     0.878200000000     0.250000000000     0          
O        O      0.780033333333     0.966400000000     0.048000000000     0          
O        O      0.780933333333     0.973800000000     0.284266666667     0          
O        O      0.709983333333     0.944400000000     0.329366666667     0          
T        Si     0.676333333333     0.231400000000     0.026433333333     0          
T        Si     0.792950000000     0.861400000000     0.284033333333     0          
T        Si     0.763583333333     0.945300000000     0.330066666667     0          
T        Si     0.750000000000     0.003800000000     0.250000000000     0          
O        O      0.785200000000     0.262300000000     0.161400000000     0          
O        O      0.724166666667     0.317600000000     0.189133333333     0          
O        O      0.750000000000     0.256700000000     0.250000000000     0          
O        O      0.801300000000     0.602900000000     0.158566666667     0          
O        O      0.666666666667     0.647100000000     0.083333333333     0          
O        O      0.750000000000     0.621800000000     0.083333333333     0          
O        O      0.803300000000     0.533600000000     0.214666666667     0          
O        O      0.802400000000     0.526200000000     0.117600000000     0          
O        O      0.706683333333     0.555600000000     0.162700000000     0          
T        Si     0.740333333333     0.268600000000     0.193100000000     0          
T        Si     0.790383333333     0.638600000000     0.117366666667     0          
T        Si     0.819750000000     0.554700000000     0.163400000000     0          
T        Si     0.666666666667     0.496200000000     0.083333333333     0          
O        O      0.714800000000     0.262300000000     0.005266666667     0          
O        O      0.775833333333     0.317600000000     0.310866666667     0          
O        O      0.698700000000     0.602900000000     0.008100000000     0          
O        O      0.696700000000     0.533600000000     0.285333333333     0          
O        O      0.697600000000     0.526200000000     0.049066666667     0          
O        O      0.793316666667     0.555600000000     0.003966666667     0          
T        Si     0.759666666667     0.268600000000     0.306900000000     0          
T        Si     0.709616666667     0.638600000000     0.049300000000     0          
T        Si     0.680250000000     0.554700000000     0.003266666667     0          
O        O      0.701866666667     0.237700000000     0.171933333333     0          
O        O      0.807500000000     0.182400000000     0.144200000000     0          
O        O      0.717966666667     0.897100000000     0.174766666667     0          
O        O      0.719966666667     0.966400000000     0.118666666667     0          
O        O      0.719066666667     0.973800000000     0.215733333333     0          
O        O      0.790016666667     0.944400000000     0.170633333333     0          
T        Si     0.823666666667     0.231400000000     0.140233333333     0          
T        Si     0.707050000000     0.861400000000     0.215966666667     0          
T        Si     0.736416666667     0.945300000000     0.169933333333     0          
O        O      0.701866666667     0.762300000000     0.338600000000     0          
O        O      0.807500000000     0.817600000000     0.644200000000     0          
O        O      0.666666666667     0.756700000000     0.583333333333     0          
O        O      0.717966666667     0.102900000000     0.341433333333     0          
O        O      0.750000000000     0.147100000000     0.416666666667     0          
O        O      0.666666666667     0.121800000000     0.416666666667     0          
O        O      0.719966666667     0.033600000000     0.618666666667     0          
O        O      0.719066666667     0.026200000000     0.382400000000     0          
O        O      0.790016666667     0.055600000000     0.337300000000     0          
T        Si     0.823666666667     0.768600000000     0.640233333333     0          
T        Si     0.707050000000     0.138600000000     0.382633333333     0          
T        Si     0.736416666667     0.054700000000     0.336600000000     0          
T        Si     0.750000000000     0.996200000000     0.416666666667     0          
O        O      0.714800000000     0.737700000000     0.505266666667     0          
O        O      0.775833333333     0.682400000000     0.477533333333     0          
O        O      0.750000000000     0.743300000000     0.416666666667     0          
O        O      0.698700000000     0.397100000000     0.508100000000     0          
O        O      0.666666666667     0.352900000000     0.583333333333     0          
O        O      0.750000000000     0.378200000000     0.583333333333     0          
O        O      0.696700000000     0.466400000000     0.452000000000     0          
O        O      0.697600000000     0.473800000000     0.549066666667     0          
O        O      0.793316666667     0.444400000000     0.503966666667     0          
T        Si     0.759666666667     0.731400000000     0.473566666667     0          
T        Si     0.709616666667     0.361400000000     0.549300000000     0          
T        Si     0.680250000000     0.445300000000     0.503266666667     0          
T        Si     0.666666666667     0.503800000000     0.583333333333     0          
O        O      0.785200000000     0.737700000000     0.661400000000     0          
O        O      0.724166666667     0.682400000000     0.355800000000     0          
O        O      0.801300000000     0.397100000000     0.658566666667     0          
O        O      0.803300000000     0.466400000000     0.381333333333     0          
O        O      0.802400000000     0.473800000000     0.617600000000     0          
O        O      0.706683333333     0.444400000000     0.662700000000     0          
T        Si     0.740333333333     0.731400000000     0.359766666667     0          
T        Si     0.790383333333     0.361400000000     0.617366666667     0          
T        Si     0.819750000000     0.445300000000     0.663400000000     0          
O        O      0.798133333333     0.762300000000     0.494733333333     0          
O        O      0.692500000000     0.817600000000     0.522466666667     0          
O        O      0.782033333333     0.102900000000     0.491900000000     0          
O        O      0.780033333333     0.033600000000     0.548000000000     0          
O        O      0.780933333333     0.026200000000     0.450933333333     0          
O        O      0.709983333333     0.055600000000     0.496033333333     0          
T        Si     0.676333333333     0.768600000000     0.526433333333     0          
T        Si     0.792950000000     0.138600000000     0.450700000000     0          
T        Si     0.763583333333     0.054700000000     0.496733333333     0          
O        O      0.798133333333     0.237700000000     0.661400000000     0          
O        O      0.692500000000     0.182400000000     0.355800000000     0          
O        O      0.666666666667     0.243300000000     0.416666666667     0          
O        O      0.782033333333     0.897100000000     0.658566666667     0          
O        O      0.750000000000     0.852900000000     0.583333333333     0          
O        O      0.666666666667     0.878200000000     0.583333333333     0          
O        O      0.780033333333     0.966400000000     0.381333333333     0          
O        O      0.780933333333     0.973800000000     0.617600000000     0          
O        O      0.709983333333     0.944400000000     0.662700000000     0          
T        Si     0.676333333333     0.231400000000     0.359766666667     0          
T        Si     0.792950000000     0.861400000000     0.617366666667     0          
T        Si     0.763583333333     0.945300000000     0.663400000000     0          
T        Si     0.750000000000     0.003800000000     0.583333333333     0          
O        O      0.785200000000     0.262300000000     0.494733333333     0          
O        O      0.724166666667     0.317600000000     0.522466666667     0          
O        O      0.750000000000     0.256700000000     0.583333333333     0          
O        O      0.801300000000     0.602900000000     0.491900000000     0          
O        O      0.666666666667     0.647100000000     0.416666666667     0          
O        O      0.750000000000     0.621800000000     0.416666666667     0          
O        O      0.803300000000     0.533600000000     0.548000000000     0          
O        O      0.802400000000     0.526200000000     0.450933333333     0          
O        O      0.706683333333     0.555600000000     0.496033333333     0          
T        Si     0.740333333333     0.268600000000     0.526433333333     0          
T        Si     0.790383333333     0.638600000000     0.450700000000     0          
T        Si     0.819750000000     0.554700000000     0.496733333333     0          
T        Si     0.666666666667     0.496200000000     0.416666666667     0          
O        O      0.714800000000     0.262300000000     0.338600000000     0          
O        O      0.775833333333     0.317600000000     0.644200000000     0          
O        O      0.698700000000     0.602900000000     0.341433333333     0          
O        O      0.696700000000     0.533600000000     0.618666666667     0          
O        O      0.697600000000     0.526200000000     0.382400000000     0          
O        O      0.793316666667     0.555600000000     0.337300000000     0          
T        Si     0.759666666667     0.268600000000     0.640233333333     0          
T        Si     0.709616666667     0.638600000000     0.382633333333     0          
T        Si     0.680250000000     0.554700000000     0.336600000000     0          
O        O      0.701866666667     0.237700000000     0.505266666667     0          
O        O      0.807500000000     0.182400000000     0.477533333333     0          
O        O      0.717966666667     0.897100000000     0.508100000000     0          
O        O      0.719966666667     0.966400000000     0.452000000000     0          
O        O      0.719066666667     0.973800000000     0.549066666667     0          
O        O      0.790016666667     0.944400000000     0.503966666667     0          
T        Si     0.823666666667     0.231400000000     0.473566666667     0          
T        Si     0.707050000000     0.861400000000     0.549300000000     0          
T        Si     0.736416666667     0.945300000000     0.503266666667     0          
O        O      0.701866666667     0.762300000000     0.671933333333     0          
O        O      0.807500000000     0.817600000000     0.977533333333     0          
O        O      0.666666666667     0.756700000000     0.916666666667     0          
O        O      0.717966666667     0.102900000000     0.674766666667     0          
O        O      0.750000000000     0.147100000000     0.750000000000     0          
O        O      0.666666666667     0.121800000000     0.750000000000     0          
O        O      0.719966666667     0.033600000000     0.952000000000     0          
O        O      0.719066666667     0.026200000000     0.715733333333     0          
O        O      0.790016666667     0.055600000000     0.670633333333     0          
T        Si     0.823666666667     0.768600000000     0.973566666667     0          
T        Si     0.707050000000     0.138600000000     0.715966666667     0          
T        Si     0.736416666667     0.054700000000     0.669933333333     0          
T        Si     0.750000000000     0.996200000000     0.750000000000     0          
O        O      0.714800000000     0.737700000000     0.838600000000     0          
O        O      0.775833333333     0.682400000000     0.810866666667     0          
O        O      0.750000000000     0.743300000000     0.750000000000     0          
O        O      0.698700000000     0.397100000000     0.841433333333     0          
O        O      0.666666666667     0.352900000000     0.916666666667     0          
O        O      0.750000000000     0.378200000000     0.916666666667     0          
O        O      0.696700000000     0.466400000000     0.785333333333     0          
O        O      0.697600000000     0.473800000000     0.882400000000     0          
O        O      0.793316666667     0.444400000000     0.837300000000     0          
T        Si     0.759666666667     0.731400000000     0.806900000000     0          
T        Si     0.709616666667     0.361400000000     0.882633333333     0          
T        Si     0.680250000000     0.445300000000     0.836600000000     0          
T        Si     0.666666666667     0.503800000000     0.916666666667     0          
O        O      0.785200000000     0.737700000000     0.994733333333     0          
O        O      0.724166666667     0.682400000000     0.689133333333     0          
O        O      0.801300000000     0.397100000000     0.991900000000     0          
O        O      0.803300000000     0.466400000000     0.714666666667     0          
O        O      0.802400000000     0.473800000000     0.950933333333     0          
O        O      0.706683333333     0.444400000000     0.996033333333     0          
T        Si     0.740333333333     0.731400000000     0.693100000000     0          
T        Si     0.790383333333     0.361400000000     0.950700000000     0          
T        Si     0.819750000000     0.445300000000     0.996733333333     0          
O        O      0.798133333333     0.762300000000     0.828066666667     0          
O        O      0.692500000000     0.817600000000     0.855800000000     0          
O        O      0.782033333333     0.102900000000     0.825233333333     0          
O        O      0.780033333333     0.033600000000     0.881333333333     0          
O        O      0.780933333333     0.026200000000     0.784266666667     0          
O        O      0.709983333333     0.055600000000     0.829366666667     0          
T        Si     0.676333333333     0.768600000000     0.859766666667     0          
T        Si     0.792950000000     0.138600000000     0.784033333333     0          
T        Si     0.763583333333     0.054700000000     0.830066666667     0          
O        O      0.798133333333     0.237700000000     0.994733333333     0          
O        O      0.692500000000     0.182400000000     0.689133333333     0          
O        O      0.666666666667     0.243300000000     0.750000000000     0          
O        O      0.782033333333     0.897100000000     0.991900000000     0          
O        O      0.750000000000     0.852900000000     0.916666666667     0          
O        O      0.666666666667     0.878200000000     0.916666666667     0          
O        O      0.780033333333     0.966400000000     0.714666666667     0          
O        O      0.780933333333     0.973800000000     0.950933333333     0          
O        O      0.709983333333     0.944400000000     0.996033333333     0          
T        Si     0.676333333333     0.231400000000     0.693100000000     0          
T        Si     0.792950000000     0.861400000000     0.950700000000     0          
T        Si     0.763583333333     0.945300000000     0.996733333333     0          
T        Si     0.750000000000     0.003800000000     0.916666666667     0          
O        O      0.785200000000     0.262300000000     0.828066666667     0          
O        O      0.724166666667     0.317600000000     0.855800000000     0          
O        O      0.750000000000     0.256700000000     0.916666666667     0          
O        O      0.801300000000     0.602900000000     0.825233333333     0          
O        O      0.666666666667     0.647100000000     0.750000000000     0          
O        O      0.750000000000     0.621800000000     0.750000000000     0          
O        O      0.803300000000     0.533600000000     0.881333333333     0          
O        O      0.802400000000     0.526200000000     0.784266666667     0          
O        O      0.706683333333     0.555600000000     0.829366666667     0          
T        Si     0.740333333333     0.268600000000     0.859766666667     0          
T        Si     0.790383333333     0.638600000000     0.784033333333     0          
T        Si     0.819750000000     0.554700000000     0.830066666667     0          
T        Si     0.666666666667     0.496200000000     0.750000000000     0          
O        O      0.714800000000     0.262300000000     0.671933333333     0          
O        O      0.775833333333     0.317600000000     0.977533333333     0          
O        O      0.698700000000     0.602900000000     0.674766666667     0          
O        O      0.696700000000     0.533600000000     0.952000000000     0          
O        O      0.697600000000     0.526200000000     0.715733333333     0          
O        O      0.793316666667     0.555600000000     0.670633333333     0          
T        Si     0.759666666667     0.268600000000     0.973566666667     0          
T        Si     0.709616666667     0.638600000000     0.715966666667     0          
T        Si     0.680250000000     0.554700000000     0.669933333333     0          
O        O      0.701866666667     0.237700000000     0.838600000000     0          
O        O      0.807500000000     0.182400000000     0.810866666667     0          
O        O      0.717966666667     0.897100000000     0.841433333333     0          
O        O      0.719966666667     0.966400000000     0.785333333333     0          
O        O      0.719066666667     0.973800000000     0.882400000000     0          
O        O      0.790016666667     0.944400000000     0.837300000000     0          
T        Si     0.823666666667     0.231400000000     0.806900000000     0          
T        Si     0.707050000000     0.861400000000     0.882633333333     0          
T        Si     0.736416666667     0.945300000000     0.836600000000     0          
O        O      0.868533333333     0.762300000000     0.005266666667     0          
O        O      0.974166666667     0.817600000000     0.310866666667     0          
O        O      0.833333333333     0.756700000000     0.250000000000     0          
O        O      0.884633333333     0.102900000000     0.008100000000     0          
O        O      0.916666666667     0.147100000000     0.083333333333     0          
O        O      0.833333333333     0.121800000000     0.083333333333     0          
O        O      0.886633333333     0.033600000000     0.285333333333     0          
O        O      0.885733333333     0.026200000000     0.049066666667     0          
O        O      0.956683333333     0.055600000000     0.003966666667     0          
T        Si     0.990333333333     0.768600000000     0.306900000000     0          
T        Si     0.873716666667     0.138600000000     0.049300000000     0          
T        Si     0.903083333333     0.054700000000     0.003266666667     0          
T        Si     0.916666666667     0.996200000000     0.083333333333     0          
O        O      0.881466666667     0.737700000000     0.171933333333     0          
O        O      0.942500000000     0.682400000000     0.144200000000     0          
O        O      0.916666666667     0.743300000000     0.083333333333     0          
O        O      0.865366666667     0.397100000000     0.174766666667     0          
O        O      0.833333333333     0.352900000000     0.250000000000     0          
O        O      0.916666666667     0.378200000000     0.250000000000     0          
O        O      0.863366666667     0.466400000000     0.118666666667     0          
O        O      0.864266666667     0.473800000000     0.215733333333     0          
O        O      0.959983333333     0.444400000000     0.170633333333     0          
T        Si     0.926333333333     0.731400000000     0.140233333333     0          
T        Si     0.876283333333     0.361400000000     0.215966666667     0          
T        Si     0.846916666667     0.445300000000     0.169933333333     0          
T        Si     0.833333333333     0.503800000000     0.250000000000     0          
O        O      0.951866666667     0.737700000000     0.328066666667     0          
O        O      0.890833333333     0.682400000000     0.022466666667     0          
O        O      0.967966666667     0.397100000000     0.325233333333     0          
O        O      0.969966666667     0.466400000000     0.048000000000     0          
O        O      0.969066666667     0.473800000000     0.284266666667     0          
O        O      0.873350000000     0.444400000000     0.329366666667     0          
T        Si     0.907000000000     0.731400000000     0.026433333333     0          
T        Si     0.957050000000     0.361400000000     0.284033333333     0          
T        Si     0.986416666667     0.445300000000     0.330066666667     0          
O        O      0.964800000000     0.762300000000     0.161400000000     0          
O        O      0.859166666667     0.817600000000     0.189133333333     0          
O        O      0.948700000000     0.102900000000     0.158566666667     0          
O        O      0.946700000000     0.033600000000     0.214666666667     0          
O        O      0.947600000000     0.026200000000     0.117600000000     0          
O        O      0.876650000000     0.055600000000     0.162700000000     0          
T        Si     0.843000000000     0.768600000000     0.193100000000     0          
T        Si     0.959616666667     0.138600000000     0.117366666667     0          
T        Si     0.930250000000     0.054700000000     0.163400000000     0          
O        O      0.964800000000     0.237700000000     0.328066666667     0          
O        O      0.859166666667     0.182400000000     0.022466666667     0          
O        O      0.833333333333     0.243300000000     0.083333333333     0          
O        O      0.948700000000     0.897100000000     0.325233333333     0          
O        O      0.916666666667     0.852900000000     0.250000000000     0          
O        O      0.833333333333     0.878200000000     0.250000000000     0          
O        O      0.946700000000     0.966400000000     0.048000000000     0          
O        O      0.947600000000     0.973800000000     0.284266666667     0          
O        O      0.876650000000     0.944400000000     0.329366666667     0          
T        Si     0.843000000000     0.231400000000     0.026433333333     0          
T        Si     0.959616666667     0.861400000000     0.284033333333     0          
T        Si     0.930250000000     0.945300000000     0.330066666667     0          
T        Si     0.916666666667     0.003800000000     0.250000000000     0          
O        O      0.951866666667     0.262300000000     0.161400000000     0          
O        O      0.890833333333     0.317600000000     0.189133333333     0          
O        O      0.916666666667     0.256700000000     0.250000000000     0          
O        O      0.967966666667     0.602900000000     0.158566666667     0          
O        O      0.833333333333     0.647100000000     0.083333333333     0          
O        O      0.916666666667     0.621800000000     0.083333333333     0          
O        O      0.969966666667     0.533600000000     0.214666666667     0          
O        O      0.969066666667     0.526200000000     0.117600000000     0          
O        O      0.873350000000     0.555600000000     0.162700000000     0          
T        Si     0.907000000000     0.268600000000     0.193100000000     0          
T        Si     0.957050000000     0.638600000000     0.117366666667     0          
T        Si     0.986416666667     0.554700000000     0.163400000000     0          
T        Si     0.833333333333     0.496200000000     0.083333333333     0          
O        O      0.881466666667     0.262300000000     0.005266666667     0          
O        O      0.942500000000     0.317600000000     0.310866666667     0          
O        O      0.865366666667     0.602900000000     0.008100000000     0          
O        O      0.863366666667     0.533600000000     0.285333333333     0          
O        O      0.864266666667     0.526200000000     0.049066666667     0          
O        O      0.959983333333     0.555600000000     0.003966666667     0          
T        Si     0.926333333333     0.268600000000     0.306900000000     0          
T        Si     0.876283333333     0.638600000000     0.049300000000     0          
T        Si     0.846916666667     0.554700000000     0.003266666667     0          
O        O      0.868533333333     0.237700000000     0.171933333333     0          
O        O      0.974166666667     0.182400000000     0.144200000000     0          
O        O      0.884633333333     0.897100000000     0.174766666667     0          
O        O      0.886633333333     0.966400000000     0.118666666667     0          
O        O      0.885733333333     0.973800000000     0.215733333333     0          
O        O      0.956683333333     0.944400000000     0.170633333333     0          
T        Si     0.990333333333     0.231400000000     0.140233333333     0          
T        Si     0.873716666667     0.861400000000     0.215966666667     0          
T        Si     0.903083333333     0.945300000000     0.169933333333     0          
O        O      0.868533333333     0.762300000000     0.338600000000     0          
O        O      0.974166666667     0.817600000000     0.644200000000     0          
O        O      0.833333333333     0.756700000000     0.583333333333     0          
O        O      0.884633333333     0.102900000000     0.341433333333     0          
O        O      0.916666666667     0.147100000000     0.416666666667     0          
O        O      0.833333333333     0.121800000000     0.416666666667     0          
O        O      0.886633333333     0.033600000000     0.618666666667     0          
O        O      0.885733333333     0.026200000000     0.382400000000     0          
O        O      0.956683333333     0.055600000000     0.337300000000     0          
T        Si     0.990333333333     0.768600000000     0.640233333333     0          
T        Si     0.873716666667     0.138600000000     0.382633333333     0          
T        Si     0.903083333333     0.054700000000     0.336600000000     0          
T        Si     0.916666666667     0.996200000000     0.416666666667     0          
O        O      0.881466666667     0.737700000000     0.505266666667     0          
O        O      0.942500000000     0.682400000000     0.477533333333     0          
O        O      0.916666666667     0.743300000000     0.416666666667     0          
O        O      0.865366666667     0.397100000000     0.508100000000     0          
O        O      0.833333333333     0.352900000000     0.583333333333     0          
O        O      0.916666666667     0.378200000000     0.583333333333     0          
O        O      0.863366666667     0.466400000000     0.452000000000     0          
O        O      0.864266666667     0.473800000000     0.549066666667     0          
O        O      0.959983333333     0.444400000000     0.503966666667     0          
T        Si     0.926333333333     0.731400000000     0.473566666667     0          
T        Si     0.876283333333     0.361400000000     0.549300000000     0          
T        Si     0.846916666667     0.445300000000     0.503266666667     0          
T        Si     0.833333333333     0.503800000000     0.583333333333     0          
O        O      0.951866666667     0.737700000000     0.661400000000     0          
O        O      0.890833333333     0.682400000000     0.355800000000     0          
O        O      0.967966666667     0.397100000000     0.658566666667     0          
O        O      0.969966666667     0.466400000000     0.381333333333     0          
O        O      0.969066666667     0.473800000000     0.617600000000     0          
O        O      0.873350000000     0.444400000000     0.662700000000     0          
T        Si     0.907000000000     0.731400000000     0.359766666667     0          
T        Si     0.957050000000     0.361400000000     0.617366666667     0          
T        Si     0.986416666667     0.445300000000     0.663400000000     0          
O        O      0.964800000000     0.762300000000     0.494733333333     0          
O        O      0.859166666667     0.817600000000     0.522466666667     0          
O        O      0.948700000000     0.102900000000     0.491900000000     0          
O        O      0.946700000000     0.033600000000     0.548000000000     0          
O        O      0.947600000000     0.026200000000     0.450933333333     0          
O        O      0.876650000000     0.055600000000     0.496033333333     0          
T        Si     0.843000000000     0.768600000000     0.526433333333     0          
T        Si     0.959616666667     0.138600000000     0.450700000000     0          
T        Si     0.930250000000     0.054700000000     0.496733333333     0          
O        O      0.964800000000     0.237700000000     0.661400000000     0          
O        O      0.859166666667     0.182400000000     0.355800000000     0          
O        O      0.833333333333     0.243300000000     0.416666666667     0          
O        O      0.948700000000     0.897100000000     0.658566666667     0          
O        O      0.916666666667     0.852900000000     0.583333333333     0          
O        O      0.833333333333     0.878200000000     0.583333333333     0          
O        O      0.946700000000     0.966400000000     0.381333333333     0          
O        O      0.947600000000     0.973800000000     0.617600000000     0          
O        O      0.876650000000     0.944400000000     0.662700000000     0          
T        Si     0.843000000000     0.231400000000     0.359766666667     0          
T        Si     0.959616666667     0.861400000000     0.617366666667     0          
T        Si     0.930250000000     0.945300000000     0.663400000000     0          
T        Si     0.916666666667     0.003800000000     0.583333333333     0          
O        O      0.951866666667     0.262300000000     0.494733333333     0          
O        O      0.890833333333     0.317600000000     0.522466666667     0          
O        O      0.916666666667     0.256700000000     0.583333333333     0          
O        O      0.967966666667     0.602900000000     0.491900000000     0          
O        O      0.833333333333     0.647100000000     0.416666666667     0          
O        O      0.916666666667     0.621800000000     0.416666666667     0          
O        O      0.969966666667     0.533600000000     0.548000000000     0          
O        O      0.969066666667     0.526200000000     0.450933333333     0          
O        O      0.873350000000     0.555600000000     0.496033333333     0          
T        Si     0.907000000000     0.268600000000     0.526433333333     0          
T        Si     0.957050000000     0.638600000000     0.450700000000     0          
T        Si     0.986416666667     0.554700000000     0.496733333333     0          
T        Si     0.833333333333     0.496200000000     0.416666666667     0          
O        O      0.881466666667     0.262300000000     0.338600000000     0          
O        O      0.942500000000     0.317600000000     0.644200000000     0          
O        O      0.865366666667     0.602900000000     0.341433333333     0          
O        O      0.863366666667     0.533600000000     0.618666666667     0          
O        O      0.864266666667     0.526200000000     0.382400000000     0          
O        O      0.959983333333     0.555600000000     0.337300000000     0          
T        Si     0.926333333333     0.268600000000     0.640233333333     0          
T        Si     0.876283333333     0.638600000000     0.382633333333     0          
T        Si     0.846916666667     0.554700000000     0.336600000000     0          
O        O      0.868533333333     0.237700000000     0.505266666667     0          
O        O      0.974166666667     0.182400000000     0.477533333333     0          
O        O      0.884633333333     0.897100000000     0.508100000000     0          
O        O      0.886633333333     0.966400000000     0.452000000000     0          
O        O      0.885733333333     0.973800000000     0.549066666667     0          
O        O      0.956683333333     0.944400000000     0.503966666667     0          
T        Si     0.990333333333     0.231400000000     0.473566666667     0          
T        Si     0.873716666667     0.861400000000     0.549300000000     0          
T        Si     0.903083333333     0.945300000000     0.503266666667     0          
O        O      0.868533333333     0.762300000000     0.671933333333     0          
O        O      0.974166666667     0.817600000000     0.977533333333     0          
O        O      0.833333333333     0.756700000000     0.916666666667     0          
O        O      0.884633333333     0.102900000000     0.674766666667     0          
O        O      0.916666666667     0.147100000000     0.750000000000     0          
O        O      0.833333333333     0.121800000000     0.750000000000     0          
O        O      0.886633333333     0.033600000000     0.952000000000     0          
O        O      0.885733333333     0.026200000000     0.715733333333     0          
O        O      0.956683333333     0.055600000000     0.670633333333     0          
T        Si     0.990333333333     0.768600000000     0.973566666667     0          
T        Si     0.873716666667     0.138600000000     0.715966666667     0          
T        Si     0.903083333333     0.054700000000     0.669933333333     0          
T        Si     0.916666666667     0.996200000000     0.750000000000     0          
O        O      0.881466666667     0.737700000000     0.838600000000     0          
O        O      0.942500000000     0.682400000000     0.810866666667     0          
O        O      0.916666666667     0.743300000000     0.750000000000     0          
O        O      0.865366666667     0.397100000000     0.841433333333     0          
O        O      0.833333333333     0.352900000000     0.916666666667     0          
O        O      0.916666666667     0.378200000000     0.916666666667     0          
O        O      0.863366666667     0.466400000000     0.785333333333     0          
O        O      0.864266666667     0.473800000000     0.882400000000     0          
O        O      0.959983333333     0.444400000000     0.837300000000     0          
T        Si     0.926333333333     0.731400000000     0.806900000000     0          
T        Si     0.876283333333     0.361400000000     0.882633333333     0          
T        Si     0.846916666667     0.445300000000     0.836600000000     0          
T        Si     0.833333333333     0.503800000000     0.916666666667     0          
O        O      0.951866666667     0.737700000000     0.994733333333     0          
O        O      0.890833333333     0.682400000000     0.689133333333     0          
O        O      0.967966666667     0.397100000000     0.991900000000     0          
O        O      0.969966666667     0.466400000000     0.714666666667     0          
O        O      0.969066666667     0.473800000000     0.950933333333     0          
O        O      0.873350000000     0.444400000000     0.996033333333     0          
T        Si     0.907000000000     0.731400000000     0.693100000000     0          
T        Si     0.957050000000     0.361400000000     0.950700000000     0          
T        Si     0.986416666667     0.445300000000     0.996733333333     0          
O        O      0.964800000000     0.762300000000     0.828066666667     0          
O        O      0.859166666667     0.817600000000     0.855800000000     0          
O        O      0.948700000000     0.102900000000     0.825233333333     0          
O        O      0.946700000000     0.033600000000     0.881333333333     0          
O        O      0.947600000000     0.026200000000     0.784266666667     0          
O        O      0.876650000000     0.055600000000     0.829366666667     0          
T        Si     0.843000000000     0.768600000000     0.859766666667     0          
T        Si     0.959616666667     0.138600000000     0.784033333333     0          
T        Si     0.930250000000     0.054700000000     0.830066666667     0          
O        O      0.964800000000     0.237700000000     0.994733333333     0          
O        O      0.859166666667     0.182400000000     0.689133333333     0          
O        O      0.833333333333     0.243300000000     0.750000000000     0          
O        O      0.948700000000     0.897100000000     0.991900000000     0          
O        O      0.916666666667     0.852900000000     0.916666666667     0          
O        O      0.833333333333     0.878200000000     0.916666666667     0          
O        O      0.946700000000     0.966400000000     0.714666666667     0          
O        O      0.947600000000     0.973800000000     0.950933333333     0          
O        O      0.876650000000     0.944400000000     0.996033333333     0          
T        Si     0.843000000000     0.231400000000     0.693100000000     0          
T        Si     0.959616666667     0.861400000000     0.950700000000     0          
T        Si     0.930250000000     0.945300000000     0.996733333333     0          
T        Si     0.916666666667     0.003800000000     0.916666666667     0          
O        O      0.951866666667     0.262300000000     0.828066666667     0          
O        O      0.890833333333     0.317600000000     0.855800000000     0          
O        O      0.916666666667     0.256700000000     0.916666666667     0          
O        O      0.967966666667     0.602900000000     0.825233333333     0          
O        O      0.833333333333     0.647100000000     0.750000000000     0          
O        O      0.916666666667     0.621800000000     0.750000000000     0          
O        O      0.969966666667     0.533600000000     0.881333333333     0          
O        O      0.969066666667     0.526200000000     0.784266666667     0          
O        O      0.873350000000     0.555600000000     0.829366666667     0          
T        Si     0.907000000000     0.268600000000     0.859766666667     0          
T        Si     0.957050000000     0.638600000000     0.784033333333     0          
T        Si     0.986416666667     0.554700000000     0.830066666667     0          
T        Si     0.833333333333     0.496200000000     0.750000000000     0          
O        O      0.881466666667     0.262300000000     0.671933333333     0          
O        O      0.942500000000     0.317600000000     0.977533333333     0          
O        O      0.865366666667     0.602900000000     0.674766666667     0          
O        O      0.863366666667     0.533600000000     0.952000000000     0          
O        O      0.864266666667     0.526200000000     0.715733333333     0          
O        O      0.959983333333     0.555600000000     0.670633333333     0          
T        Si     0.926333333333     0.268600000000     0.973566666667     0          
T        Si     0.876283333333     0.638600000000     0.715966666667     0          
T        Si     0.846916666667     0.554700000000     0.669933333333     0          
O        O      0.868533333333     0.237700000000     0.838600000000     0          
O        O      0.974166666667     0.182400000000     0.810866666667     0          
O        O      0.884633333333     0.897100000000     0.841433333333     0          
O        O      0.886633333333     0.966400000000     0.785333333333     0          
O        O      0.885733333333     0.973800000000     0.882400000000     0          
O        O      0.956683333333     0.944400000000     0.837300000000     0          
T        Si     0.990333333333     0.231400000000     0.806900000000     0          
T        Si     0.873716666667     0.861400000000     0.882633333333     0          
T        Si     0.903083333333     0.945300000000     0.836600000000     0          


