data_zeolite

_audit_creation_method RASPA-1.0
_audit_creation_date 2022-1-5
_audit_author_name ''

_cell_length_a    48.401
_cell_length_b    37.6197
_cell_length_c    42.7506
_cell_angle_alpha 72.599
_cell_angle_beta  123.128
_cell_angle_gamma 90
_cell_volume      60890.4

_symmetry_cell_setting          triclinic
_symmetry_space_group_name_Hall 'P 1'
_symmetry_space_group_name_H-M  'P 1'
_symmetry_Int_Tables_number     1

_symmetry_equiv_pos_as_xyz 'x,y,z'

loop_
_atom_site_label
_atom_site_type_symbol
_atom_site_fract_x
_atom_site_fract_y
_atom_site_fract_z
_atom_site_charge
T        Si     0.025895000000     0.160780000000     0.305036666667     0          
T        Si     0.036290000000     0.236330000000     0.265090000000     0          
T        Si     0.028665000000     0.286476666667     0.305580000000     0          
T        Si     0.078350000000     0.270243333333     0.233940000000     0          
T        Si     0.038450000000     0.299366666667     0.141093333333     0          
T        Si     0.084140000000     0.285913333333     0.115496666667     0          
T        Si     0.050765000000     0.243046666667     0.059546666667     0          
T        Si     0.045580000000     0.036466666667     0.055933333333     0          
T        Si     0.155540000000     0.284410000000     0.188240000000     0          
T        Si     0.151255000000     0.237823333333     0.260013333333     0          
T        Si     0.197105000000     0.159636666667     0.306603333333     0          
T        Si     0.246435000000     0.169190000000     0.278086666667     0          
T        Si     0.228875000000     0.251396666667     0.222206666667     0          
T        Si     0.245220000000     0.297083333333     0.277700000000     0          
T        Si     0.196070000000     0.288790000000     0.302916666667     0          
T        Si     0.237930000000     0.295603333333     0.157726666667     0          
T        Si     0.228195000000     0.046216666667     0.218036666667     0          
T        Si     0.243390000000     0.089483333333     0.275293333333     0          
T        Si     0.194935000000     0.080970000000     0.301243333333     0          
T        Si     0.149015000000     0.033883333333     0.257823333333     0          
T        Si     0.155195000000     0.036353333333     0.187630000000     0          
T        Si     0.082765000000     0.081033333333     0.112896666667     0          
T        Si     0.049865000000     0.163056666667     0.055836666667     0          
T        Si     0.036575000000     0.048196666667     0.138183333333     0          
T        Si     0.076435000000     0.019116666667     0.230840000000     0          
T        Si     0.034540000000     0.032813333333     0.261800000000     0          
T        Si     0.022955000000     0.080686666667     0.301620000000     0          
O        O      0.036315000000     0.119023333333     0.307250000000     0          
O        O      0.036250000000     0.191630000000     0.279906666667     0          
O        O      0.000290000000     0.258093333333     0.224033333333     0          
O        O      0.043040000000     0.253203333333     0.298586666667     0          
O        O      0.040520000000     0.324883333333     0.292606666667     0          
O        O      0.065520000000     0.241970000000     0.257726666667     0          
O        O      0.085520000000     0.306680000000     0.247546666667     0          
O        O      0.112555000000     0.248563333333     0.244313333333     0          
O        O      0.049695000000     0.283966666667     0.186640000000     0          
O        O      0.002170000000     0.290190000000     0.112863333333     0          
O        O      0.066065000000     0.279063333333     0.138543333333     0          
O        O      0.080025000000     0.253193333333     0.096936666667     0          
O        O      0.042510000000     0.273903333333     0.018616666667     0          
O        O      0.017595000000     0.243786666667     0.059740000000     0          
O        O      0.062640000000     0.201156666667     0.063256666667     0          
O        O      0.066380000000     0.326576666667     0.079636666667     0          
O        O      0.035920000000     0.049420000000     0.011123333333     0          
O        O      0.011870000000     0.039173333333     0.054853333333     0          
O        O      0.068355000000     0.063716666667     0.077896666667     0          
O        O      0.123395000000     0.285750000000     0.145603333333     0          
O        O      0.155165000000     0.325756666667     0.191790000000     0          
O        O      0.189385000000     0.270686666667     0.192643333333     0          
O        O      0.154505000000     0.253993333333     0.223050000000     0          
O        O      0.174975000000     0.255813333333     0.293326666667     0          
O        O      0.163405000000     0.192226666667     0.279230000000     0          
O        O      0.187120000000     0.118623333333     0.307900000000     0          
O        O      0.218500000000     0.167246666667     0.287663333333     0          
O        O      0.252440000000     0.131136666667     0.270840000000     0          
O        O      0.281165000000     0.172856666667     0.315430000000     0          
O        O      0.233730000000     0.205790000000     0.238683333333     0          
O        O      0.246555000000     0.265990000000     0.259360000000     0          
O        O      0.277930000000     0.285026666667     0.323043333333     0          
O        O      0.211740000000     0.299103333333     0.277170000000     0          
O        O      0.170895000000     0.325916666667     0.290983333333     0          
O        O      0.245725000000     0.263693333333     0.197920000000     0          
O        O      0.198030000000     0.305490000000     0.123633333333     0          
O        O      0.250000000000     0.000000000000     0.166666666667     0          
O        O      0.242390000000     0.053623333333     0.190746666667     0          
O        O      0.188230000000     0.048253333333     0.190420000000     0          
O        O      0.245980000000     0.004543333333     0.252163333333     0          
O        O      0.236155000000     0.077936666667     0.238493333333     0          
O        O      0.274045000000     0.058700000000     0.316830000000     0          
O        O      0.209825000000     0.090666666667     0.274660000000     0          
O        O      0.160800000000     0.065530000000     0.278430000000     0          
O        O      0.109560000000     0.035440000000     0.238853333333     0          
O        O      0.155040000000     0.043076666667     0.222986666667     0          
O        O      0.122370000000     0.063126666667     0.145203333333     0          
O        O      0.077180000000     0.126526666667     0.093756666667     0          
O        O      0.014185000000     0.162523333333     0.050203333333     0          
O        O      0.045700000000     0.161620000000     0.016256666667     0          
O        O      0.063275000000     0.071073333333     0.134176666667     0          
O        O      0.035775000000     0.011373333333     0.126116666667     0          
O        O      0.047495000000     0.034623333333     0.183563333333     0          
O        O      0.063095000000     0.033086666667     0.253270000000     0          
O        O      0.037315000000     0.064366666667     0.281323333333     0          
T        Si     0.474105000000     0.172553333333     0.028296666667     0          
T        Si     0.463710000000     0.097003333333     0.068243333333     0          
T        Si     0.471335000000     0.046856666667     0.027753333333     0          
T        Si     0.421650000000     0.063090000000     0.099393333333     0          
T        Si     0.461550000000     0.033966666667     0.192240000000     0          
T        Si     0.415860000000     0.047420000000     0.217836666667     0          
T        Si     0.449235000000     0.090286666667     0.273786666667     0          
T        Si     0.454420000000     0.296866666667     0.277400000000     0          
T        Si     0.344460000000     0.048923333333     0.145093333333     0          
T        Si     0.348745000000     0.095510000000     0.073320000000     0          
T        Si     0.302895000000     0.173696666667     0.026730000000     0          
T        Si     0.253565000000     0.164143333333     0.055246666667     0          
T        Si     0.271125000000     0.081936666667     0.111126666667     0          
T        Si     0.254780000000     0.036250000000     0.055633333333     0          
T        Si     0.303930000000     0.044543333333     0.030416666667     0          
T        Si     0.262070000000     0.037730000000     0.175606666667     0          
T        Si     0.271805000000     0.287116666667     0.115296666667     0          
T        Si     0.256610000000     0.243850000000     0.058040000000     0          
T        Si     0.305065000000     0.252363333333     0.032090000000     0          
T        Si     0.350985000000     0.299450000000     0.075510000000     0          
T        Si     0.344805000000     0.296980000000     0.145703333333     0          
T        Si     0.417235000000     0.252300000000     0.220436666667     0          
T        Si     0.450135000000     0.170276666667     0.277496666667     0          
T        Si     0.463425000000     0.285136666667     0.195150000000     0          
T        Si     0.423565000000     0.314216666667     0.102493333333     0          
T        Si     0.465460000000     0.300520000000     0.071533333333     0          
T        Si     0.477045000000     0.252646666667     0.031713333333     0          
O        O      0.463685000000     0.214310000000     0.026083333333     0          
O        O      0.463750000000     0.141703333333     0.053426666667     0          
O        O      0.499710000000     0.075240000000     0.109300000000     0          
O        O      0.456960000000     0.080130000000     0.034746666667     0          
O        O      0.459480000000     0.008450000000     0.040726666667     0          
O        O      0.434480000000     0.091363333333     0.075606666667     0          
O        O      0.414480000000     0.026653333333     0.085786666667     0          
O        O      0.387445000000     0.084770000000     0.089020000000     0          
O        O      0.450305000000     0.049366666667     0.146693333333     0          
O        O      0.497830000000     0.043143333333     0.220470000000     0          
O        O      0.433935000000     0.054270000000     0.194790000000     0          
O        O      0.419975000000     0.080140000000     0.236396666667     0          
O        O      0.457490000000     0.059430000000     0.314716666667     0          
O        O      0.482405000000     0.089546666667     0.273593333333     0          
O        O      0.437360000000     0.132176666667     0.270076666667     0          
O        O      0.433620000000     0.006756666667     0.253696666667     0          
O        O      0.464080000000     0.283913333333     0.322210000000     0          
O        O      0.488130000000     0.294160000000     0.278480000000     0          
O        O      0.431645000000     0.269616666667     0.255436666667     0          
O        O      0.376605000000     0.047583333333     0.187730000000     0          
O        O      0.344835000000     0.007576666667     0.141543333333     0          
O        O      0.310615000000     0.062646666667     0.140690000000     0          
O        O      0.345495000000     0.079340000000     0.110283333333     0          
O        O      0.325025000000     0.077520000000     0.040006666667     0          
O        O      0.336595000000     0.141106666667     0.054103333333     0          
O        O      0.312880000000     0.214710000000     0.025433333333     0          
O        O      0.281500000000     0.166086666667     0.045670000000     0          
O        O      0.247560000000     0.202196666667     0.062493333333     0          
O        O      0.218835000000     0.160476666667     0.017903333333     0          
O        O      0.266270000000     0.127543333333     0.094650000000     0          
O        O      0.253445000000     0.067343333333     0.073973333333     0          
O        O      0.222070000000     0.048306666667     0.010290000000     0          
O        O      0.288260000000     0.034230000000     0.056163333333     0          
O        O      0.329105000000     0.007416666667     0.042350000000     0          
O        O      0.254275000000     0.069640000000     0.135413333333     0          
O        O      0.301970000000     0.027843333333     0.209700000000     0          
O        O      0.257610000000     0.279710000000     0.142586666667     0          
O        O      0.311770000000     0.285080000000     0.142913333333     0          
O        O      0.254020000000     0.328790000000     0.081170000000     0          
O        O      0.263845000000     0.255396666667     0.094840000000     0          
O        O      0.225955000000     0.274633333333     0.016503333333     0          
O        O      0.290175000000     0.242666666667     0.058673333333     0          
O        O      0.339200000000     0.267803333333     0.054903333333     0          
O        O      0.390440000000     0.297893333333     0.094480000000     0          
O        O      0.344960000000     0.290256666667     0.110346666667     0          
O        O      0.377630000000     0.270206666667     0.188130000000     0          
O        O      0.422820000000     0.206806666667     0.239576666667     0          
O        O      0.485815000000     0.170810000000     0.283130000000     0          
O        O      0.454300000000     0.171713333333     0.317076666667     0          
O        O      0.436725000000     0.262260000000     0.199156666667     0          
O        O      0.464225000000     0.321960000000     0.207216666667     0          
O        O      0.452505000000     0.298710000000     0.149770000000     0          
O        O      0.436905000000     0.300246666667     0.080063333333     0          
O        O      0.462685000000     0.268966666667     0.052010000000     0          
T        Si     0.025895000000     0.160780000000     0.638370000000     0          
T        Si     0.036290000000     0.236330000000     0.598423333333     0          
T        Si     0.028665000000     0.286476666667     0.638913333333     0          
T        Si     0.078350000000     0.270243333333     0.567273333333     0          
T        Si     0.038450000000     0.299366666667     0.474426666667     0          
T        Si     0.084140000000     0.285913333333     0.448830000000     0          
T        Si     0.050765000000     0.243046666667     0.392880000000     0          
T        Si     0.045580000000     0.036466666667     0.389266666667     0          
T        Si     0.155540000000     0.284410000000     0.521573333333     0          
T        Si     0.151255000000     0.237823333333     0.593346666667     0          
T        Si     0.197105000000     0.159636666667     0.639936666667     0          
T        Si     0.246435000000     0.169190000000     0.611420000000     0          
T        Si     0.228875000000     0.251396666667     0.555540000000     0          
T        Si     0.245220000000     0.297083333333     0.611033333333     0          
T        Si     0.196070000000     0.288790000000     0.636250000000     0          
T        Si     0.237930000000     0.295603333333     0.491060000000     0          
T        Si     0.228195000000     0.046216666667     0.551370000000     0          
T        Si     0.243390000000     0.089483333333     0.608626666667     0          
T        Si     0.194935000000     0.080970000000     0.634576666667     0          
T        Si     0.149015000000     0.033883333333     0.591156666667     0          
T        Si     0.155195000000     0.036353333333     0.520963333333     0          
T        Si     0.082765000000     0.081033333333     0.446230000000     0          
T        Si     0.049865000000     0.163056666667     0.389170000000     0          
T        Si     0.036575000000     0.048196666667     0.471516666667     0          
T        Si     0.076435000000     0.019116666667     0.564173333333     0          
T        Si     0.034540000000     0.032813333333     0.595133333333     0          
T        Si     0.022955000000     0.080686666667     0.634953333333     0          
O        O      0.036315000000     0.119023333333     0.640583333333     0          
O        O      0.036250000000     0.191630000000     0.613240000000     0          
O        O      0.000290000000     0.258093333333     0.557366666667     0          
O        O      0.043040000000     0.253203333333     0.631920000000     0          
O        O      0.040520000000     0.324883333333     0.625940000000     0          
O        O      0.065520000000     0.241970000000     0.591060000000     0          
O        O      0.085520000000     0.306680000000     0.580880000000     0          
O        O      0.112555000000     0.248563333333     0.577646666667     0          
O        O      0.049695000000     0.283966666667     0.519973333333     0          
O        O      0.002170000000     0.290190000000     0.446196666667     0          
O        O      0.066065000000     0.279063333333     0.471876666667     0          
O        O      0.080025000000     0.253193333333     0.430270000000     0          
O        O      0.042510000000     0.273903333333     0.351950000000     0          
O        O      0.017595000000     0.243786666667     0.393073333333     0          
O        O      0.062640000000     0.201156666667     0.396590000000     0          
O        O      0.066380000000     0.326576666667     0.412970000000     0          
O        O      0.035920000000     0.049420000000     0.344456666667     0          
O        O      0.011870000000     0.039173333333     0.388186666667     0          
O        O      0.068355000000     0.063716666667     0.411230000000     0          
O        O      0.123395000000     0.285750000000     0.478936666667     0          
O        O      0.155165000000     0.325756666667     0.525123333333     0          
O        O      0.189385000000     0.270686666667     0.525976666667     0          
O        O      0.154505000000     0.253993333333     0.556383333333     0          
O        O      0.174975000000     0.255813333333     0.626660000000     0          
O        O      0.163405000000     0.192226666667     0.612563333333     0          
O        O      0.187120000000     0.118623333333     0.641233333333     0          
O        O      0.218500000000     0.167246666667     0.620996666667     0          
O        O      0.252440000000     0.131136666667     0.604173333333     0          
O        O      0.281165000000     0.172856666667     0.648763333333     0          
O        O      0.233730000000     0.205790000000     0.572016666667     0          
O        O      0.246555000000     0.265990000000     0.592693333333     0          
O        O      0.277930000000     0.285026666667     0.656376666667     0          
O        O      0.211740000000     0.299103333333     0.610503333333     0          
O        O      0.170895000000     0.325916666667     0.624316666667     0          
O        O      0.245725000000     0.263693333333     0.531253333333     0          
O        O      0.198030000000     0.305490000000     0.456966666667     0          
O        O      0.250000000000     0.000000000000     0.500000000000     0          
O        O      0.242390000000     0.053623333333     0.524080000000     0          
O        O      0.188230000000     0.048253333333     0.523753333333     0          
O        O      0.245980000000     0.004543333333     0.585496666667     0          
O        O      0.236155000000     0.077936666667     0.571826666667     0          
O        O      0.274045000000     0.058700000000     0.650163333333     0          
O        O      0.209825000000     0.090666666667     0.607993333333     0          
O        O      0.160800000000     0.065530000000     0.611763333333     0          
O        O      0.109560000000     0.035440000000     0.572186666667     0          
O        O      0.155040000000     0.043076666667     0.556320000000     0          
O        O      0.122370000000     0.063126666667     0.478536666667     0          
O        O      0.077180000000     0.126526666667     0.427090000000     0          
O        O      0.014185000000     0.162523333333     0.383536666667     0          
O        O      0.045700000000     0.161620000000     0.349590000000     0          
O        O      0.063275000000     0.071073333333     0.467510000000     0          
O        O      0.035775000000     0.011373333333     0.459450000000     0          
O        O      0.047495000000     0.034623333333     0.516896666667     0          
O        O      0.063095000000     0.033086666667     0.586603333333     0          
O        O      0.037315000000     0.064366666667     0.614656666667     0          
T        Si     0.474105000000     0.172553333333     0.361630000000     0          
T        Si     0.463710000000     0.097003333333     0.401576666667     0          
T        Si     0.471335000000     0.046856666667     0.361086666667     0          
T        Si     0.421650000000     0.063090000000     0.432726666667     0          
T        Si     0.461550000000     0.033966666667     0.525573333333     0          
T        Si     0.415860000000     0.047420000000     0.551170000000     0          
T        Si     0.449235000000     0.090286666667     0.607120000000     0          
T        Si     0.454420000000     0.296866666667     0.610733333333     0          
T        Si     0.344460000000     0.048923333333     0.478426666667     0          
T        Si     0.348745000000     0.095510000000     0.406653333333     0          
T        Si     0.302895000000     0.173696666667     0.360063333333     0          
T        Si     0.253565000000     0.164143333333     0.388580000000     0          
T        Si     0.271125000000     0.081936666667     0.444460000000     0          
T        Si     0.254780000000     0.036250000000     0.388966666667     0          
T        Si     0.303930000000     0.044543333333     0.363750000000     0          
T        Si     0.262070000000     0.037730000000     0.508940000000     0          
T        Si     0.271805000000     0.287116666667     0.448630000000     0          
T        Si     0.256610000000     0.243850000000     0.391373333333     0          
T        Si     0.305065000000     0.252363333333     0.365423333333     0          
T        Si     0.350985000000     0.299450000000     0.408843333333     0          
T        Si     0.344805000000     0.296980000000     0.479036666667     0          
T        Si     0.417235000000     0.252300000000     0.553770000000     0          
T        Si     0.450135000000     0.170276666667     0.610830000000     0          
T        Si     0.463425000000     0.285136666667     0.528483333333     0          
T        Si     0.423565000000     0.314216666667     0.435826666667     0          
T        Si     0.465460000000     0.300520000000     0.404866666667     0          
T        Si     0.477045000000     0.252646666667     0.365046666667     0          
O        O      0.463685000000     0.214310000000     0.359416666667     0          
O        O      0.463750000000     0.141703333333     0.386760000000     0          
O        O      0.499710000000     0.075240000000     0.442633333333     0          
O        O      0.456960000000     0.080130000000     0.368080000000     0          
O        O      0.459480000000     0.008450000000     0.374060000000     0          
O        O      0.434480000000     0.091363333333     0.408940000000     0          
O        O      0.414480000000     0.026653333333     0.419120000000     0          
O        O      0.387445000000     0.084770000000     0.422353333333     0          
O        O      0.450305000000     0.049366666667     0.480026666667     0          
O        O      0.497830000000     0.043143333333     0.553803333333     0          
O        O      0.433935000000     0.054270000000     0.528123333333     0          
O        O      0.419975000000     0.080140000000     0.569730000000     0          
O        O      0.457490000000     0.059430000000     0.648050000000     0          
O        O      0.482405000000     0.089546666667     0.606926666667     0          
O        O      0.437360000000     0.132176666667     0.603410000000     0          
O        O      0.433620000000     0.006756666667     0.587030000000     0          
O        O      0.464080000000     0.283913333333     0.655543333333     0          
O        O      0.488130000000     0.294160000000     0.611813333333     0          
O        O      0.431645000000     0.269616666667     0.588770000000     0          
O        O      0.376605000000     0.047583333333     0.521063333333     0          
O        O      0.344835000000     0.007576666667     0.474876666667     0          
O        O      0.310615000000     0.062646666667     0.474023333333     0          
O        O      0.345495000000     0.079340000000     0.443616666667     0          
O        O      0.325025000000     0.077520000000     0.373340000000     0          
O        O      0.336595000000     0.141106666667     0.387436666667     0          
O        O      0.312880000000     0.214710000000     0.358766666667     0          
O        O      0.281500000000     0.166086666667     0.379003333333     0          
O        O      0.247560000000     0.202196666667     0.395826666667     0          
O        O      0.218835000000     0.160476666667     0.351236666667     0          
O        O      0.266270000000     0.127543333333     0.427983333333     0          
O        O      0.253445000000     0.067343333333     0.407306666667     0          
O        O      0.222070000000     0.048306666667     0.343623333333     0          
O        O      0.288260000000     0.034230000000     0.389496666667     0          
O        O      0.329105000000     0.007416666667     0.375683333333     0          
O        O      0.254275000000     0.069640000000     0.468746666667     0          
O        O      0.301970000000     0.027843333333     0.543033333333     0          
O        O      0.257610000000     0.279710000000     0.475920000000     0          
O        O      0.311770000000     0.285080000000     0.476246666667     0          
O        O      0.254020000000     0.328790000000     0.414503333333     0          
O        O      0.263845000000     0.255396666667     0.428173333333     0          
O        O      0.225955000000     0.274633333333     0.349836666667     0          
O        O      0.290175000000     0.242666666667     0.392006666667     0          
O        O      0.339200000000     0.267803333333     0.388236666667     0          
O        O      0.390440000000     0.297893333333     0.427813333333     0          
O        O      0.344960000000     0.290256666667     0.443680000000     0          
O        O      0.377630000000     0.270206666667     0.521463333333     0          
O        O      0.422820000000     0.206806666667     0.572910000000     0          
O        O      0.485815000000     0.170810000000     0.616463333333     0          
O        O      0.454300000000     0.171713333333     0.650410000000     0          
O        O      0.436725000000     0.262260000000     0.532490000000     0          
O        O      0.464225000000     0.321960000000     0.540550000000     0          
O        O      0.452505000000     0.298710000000     0.483103333333     0          
O        O      0.436905000000     0.300246666667     0.413396666667     0          
O        O      0.462685000000     0.268966666667     0.385343333333     0          
T        Si     0.025895000000     0.160780000000     0.971703333333     0          
T        Si     0.036290000000     0.236330000000     0.931756666667     0          
T        Si     0.028665000000     0.286476666667     0.972246666667     0          
T        Si     0.078350000000     0.270243333333     0.900606666667     0          
T        Si     0.038450000000     0.299366666667     0.807760000000     0          
T        Si     0.084140000000     0.285913333333     0.782163333333     0          
T        Si     0.050765000000     0.243046666667     0.726213333333     0          
T        Si     0.045580000000     0.036466666667     0.722600000000     0          
T        Si     0.155540000000     0.284410000000     0.854906666667     0          
T        Si     0.151255000000     0.237823333333     0.926680000000     0          
T        Si     0.197105000000     0.159636666667     0.973270000000     0          
T        Si     0.246435000000     0.169190000000     0.944753333333     0          
T        Si     0.228875000000     0.251396666667     0.888873333333     0          
T        Si     0.245220000000     0.297083333333     0.944366666667     0          
T        Si     0.196070000000     0.288790000000     0.969583333333     0          
T        Si     0.237930000000     0.295603333333     0.824393333333     0          
T        Si     0.228195000000     0.046216666667     0.884703333333     0          
T        Si     0.243390000000     0.089483333333     0.941960000000     0          
T        Si     0.194935000000     0.080970000000     0.967910000000     0          
T        Si     0.149015000000     0.033883333333     0.924490000000     0          
T        Si     0.155195000000     0.036353333333     0.854296666667     0          
T        Si     0.082765000000     0.081033333333     0.779563333333     0          
T        Si     0.049865000000     0.163056666667     0.722503333333     0          
T        Si     0.036575000000     0.048196666667     0.804850000000     0          
T        Si     0.076435000000     0.019116666667     0.897506666667     0          
T        Si     0.034540000000     0.032813333333     0.928466666667     0          
T        Si     0.022955000000     0.080686666667     0.968286666667     0          
O        O      0.036315000000     0.119023333333     0.973916666667     0          
O        O      0.036250000000     0.191630000000     0.946573333333     0          
O        O      0.000290000000     0.258093333333     0.890700000000     0          
O        O      0.043040000000     0.253203333333     0.965253333333     0          
O        O      0.040520000000     0.324883333333     0.959273333333     0          
O        O      0.065520000000     0.241970000000     0.924393333333     0          
O        O      0.085520000000     0.306680000000     0.914213333333     0          
O        O      0.112555000000     0.248563333333     0.910980000000     0          
O        O      0.049695000000     0.283966666667     0.853306666667     0          
O        O      0.002170000000     0.290190000000     0.779530000000     0          
O        O      0.066065000000     0.279063333333     0.805210000000     0          
O        O      0.080025000000     0.253193333333     0.763603333333     0          
O        O      0.042510000000     0.273903333333     0.685283333333     0          
O        O      0.017595000000     0.243786666667     0.726406666667     0          
O        O      0.062640000000     0.201156666667     0.729923333333     0          
O        O      0.066380000000     0.326576666667     0.746303333333     0          
O        O      0.035920000000     0.049420000000     0.677790000000     0          
O        O      0.011870000000     0.039173333333     0.721520000000     0          
O        O      0.068355000000     0.063716666667     0.744563333333     0          
O        O      0.123395000000     0.285750000000     0.812270000000     0          
O        O      0.155165000000     0.325756666667     0.858456666667     0          
O        O      0.189385000000     0.270686666667     0.859310000000     0          
O        O      0.154505000000     0.253993333333     0.889716666667     0          
O        O      0.174975000000     0.255813333333     0.959993333333     0          
O        O      0.163405000000     0.192226666667     0.945896666667     0          
O        O      0.187120000000     0.118623333333     0.974566666667     0          
O        O      0.218500000000     0.167246666667     0.954330000000     0          
O        O      0.252440000000     0.131136666667     0.937506666667     0          
O        O      0.281165000000     0.172856666667     0.982096666667     0          
O        O      0.233730000000     0.205790000000     0.905350000000     0          
O        O      0.246555000000     0.265990000000     0.926026666667     0          
O        O      0.277930000000     0.285026666667     0.989710000000     0          
O        O      0.211740000000     0.299103333333     0.943836666667     0          
O        O      0.170895000000     0.325916666667     0.957650000000     0          
O        O      0.245725000000     0.263693333333     0.864586666667     0          
O        O      0.198030000000     0.305490000000     0.790300000000     0          
O        O      0.250000000000     0.000000000000     0.833333333333     0          
O        O      0.242390000000     0.053623333333     0.857413333333     0          
O        O      0.188230000000     0.048253333333     0.857086666667     0          
O        O      0.245980000000     0.004543333333     0.918830000000     0          
O        O      0.236155000000     0.077936666667     0.905160000000     0          
O        O      0.274045000000     0.058700000000     0.983496666667     0          
O        O      0.209825000000     0.090666666667     0.941326666667     0          
O        O      0.160800000000     0.065530000000     0.945096666667     0          
O        O      0.109560000000     0.035440000000     0.905520000000     0          
O        O      0.155040000000     0.043076666667     0.889653333333     0          
O        O      0.122370000000     0.063126666667     0.811870000000     0          
O        O      0.077180000000     0.126526666667     0.760423333333     0          
O        O      0.014185000000     0.162523333333     0.716870000000     0          
O        O      0.045700000000     0.161620000000     0.682923333333     0          
O        O      0.063275000000     0.071073333333     0.800843333333     0          
O        O      0.035775000000     0.011373333333     0.792783333333     0          
O        O      0.047495000000     0.034623333333     0.850230000000     0          
O        O      0.063095000000     0.033086666667     0.919936666667     0          
O        O      0.037315000000     0.064366666667     0.947990000000     0          
T        Si     0.474105000000     0.172553333333     0.694963333333     0          
T        Si     0.463710000000     0.097003333333     0.734910000000     0          
T        Si     0.471335000000     0.046856666667     0.694420000000     0          
T        Si     0.421650000000     0.063090000000     0.766060000000     0          
T        Si     0.461550000000     0.033966666667     0.858906666667     0          
T        Si     0.415860000000     0.047420000000     0.884503333333     0          
T        Si     0.449235000000     0.090286666667     0.940453333333     0          
T        Si     0.454420000000     0.296866666667     0.944066666667     0          
T        Si     0.344460000000     0.048923333333     0.811760000000     0          
T        Si     0.348745000000     0.095510000000     0.739986666667     0          
T        Si     0.302895000000     0.173696666667     0.693396666667     0          
T        Si     0.253565000000     0.164143333333     0.721913333333     0          
T        Si     0.271125000000     0.081936666667     0.777793333333     0          
T        Si     0.254780000000     0.036250000000     0.722300000000     0          
T        Si     0.303930000000     0.044543333333     0.697083333333     0          
T        Si     0.262070000000     0.037730000000     0.842273333333     0          
T        Si     0.271805000000     0.287116666667     0.781963333333     0          
T        Si     0.256610000000     0.243850000000     0.724706666667     0          
T        Si     0.305065000000     0.252363333333     0.698756666667     0          
T        Si     0.350985000000     0.299450000000     0.742176666667     0          
T        Si     0.344805000000     0.296980000000     0.812370000000     0          
T        Si     0.417235000000     0.252300000000     0.887103333333     0          
T        Si     0.450135000000     0.170276666667     0.944163333333     0          
T        Si     0.463425000000     0.285136666667     0.861816666667     0          
T        Si     0.423565000000     0.314216666667     0.769160000000     0          
T        Si     0.465460000000     0.300520000000     0.738200000000     0          
T        Si     0.477045000000     0.252646666667     0.698380000000     0          
O        O      0.463685000000     0.214310000000     0.692750000000     0          
O        O      0.463750000000     0.141703333333     0.720093333333     0          
O        O      0.499710000000     0.075240000000     0.775966666667     0          
O        O      0.456960000000     0.080130000000     0.701413333333     0          
O        O      0.459480000000     0.008450000000     0.707393333333     0          
O        O      0.434480000000     0.091363333333     0.742273333333     0          
O        O      0.414480000000     0.026653333333     0.752453333333     0          
O        O      0.387445000000     0.084770000000     0.755686666667     0          
O        O      0.450305000000     0.049366666667     0.813360000000     0          
O        O      0.497830000000     0.043143333333     0.887136666667     0          
O        O      0.433935000000     0.054270000000     0.861456666667     0          
O        O      0.419975000000     0.080140000000     0.903063333333     0          
O        O      0.457490000000     0.059430000000     0.981383333333     0          
O        O      0.482405000000     0.089546666667     0.940260000000     0          
O        O      0.437360000000     0.132176666667     0.936743333333     0          
O        O      0.433620000000     0.006756666667     0.920363333333     0          
O        O      0.464080000000     0.283913333333     0.988876666667     0          
O        O      0.488130000000     0.294160000000     0.945146666667     0          
O        O      0.431645000000     0.269616666667     0.922103333333     0          
O        O      0.376605000000     0.047583333333     0.854396666667     0          
O        O      0.344835000000     0.007576666667     0.808210000000     0          
O        O      0.310615000000     0.062646666667     0.807356666667     0          
O        O      0.345495000000     0.079340000000     0.776950000000     0          
O        O      0.325025000000     0.077520000000     0.706673333333     0          
O        O      0.336595000000     0.141106666667     0.720770000000     0          
O        O      0.312880000000     0.214710000000     0.692100000000     0          
O        O      0.281500000000     0.166086666667     0.712336666667     0          
O        O      0.247560000000     0.202196666667     0.729160000000     0          
O        O      0.218835000000     0.160476666667     0.684570000000     0          
O        O      0.266270000000     0.127543333333     0.761316666667     0          
O        O      0.253445000000     0.067343333333     0.740640000000     0          
O        O      0.222070000000     0.048306666667     0.676956666667     0          
O        O      0.288260000000     0.034230000000     0.722830000000     0          
O        O      0.329105000000     0.007416666667     0.709016666667     0          
O        O      0.254275000000     0.069640000000     0.802080000000     0          
O        O      0.301970000000     0.027843333333     0.876366666667     0          
O        O      0.257610000000     0.279710000000     0.809253333333     0          
O        O      0.311770000000     0.285080000000     0.809580000000     0          
O        O      0.254020000000     0.328790000000     0.747836666667     0          
O        O      0.263845000000     0.255396666667     0.761506666667     0          
O        O      0.225955000000     0.274633333333     0.683170000000     0          
O        O      0.290175000000     0.242666666667     0.725340000000     0          
O        O      0.339200000000     0.267803333333     0.721570000000     0          
O        O      0.390440000000     0.297893333333     0.761146666667     0          
O        O      0.344960000000     0.290256666667     0.777013333333     0          
O        O      0.377630000000     0.270206666667     0.854796666667     0          
O        O      0.422820000000     0.206806666667     0.906243333333     0          
O        O      0.485815000000     0.170810000000     0.949796666667     0          
O        O      0.454300000000     0.171713333333     0.983743333333     0          
O        O      0.436725000000     0.262260000000     0.865823333333     0          
O        O      0.464225000000     0.321960000000     0.873883333333     0          
O        O      0.452505000000     0.298710000000     0.816436666667     0          
O        O      0.436905000000     0.300246666667     0.746730000000     0          
O        O      0.462685000000     0.268966666667     0.718676666667     0          
T        Si     0.025895000000     0.494113333333     0.305036666667     0          
T        Si     0.036290000000     0.569663333333     0.265090000000     0          
T        Si     0.028665000000     0.619810000000     0.305580000000     0          
T        Si     0.078350000000     0.603576666667     0.233940000000     0          
T        Si     0.038450000000     0.632700000000     0.141093333333     0          
T        Si     0.084140000000     0.619246666667     0.115496666667     0          
T        Si     0.050765000000     0.576380000000     0.059546666667     0          
T        Si     0.045580000000     0.369800000000     0.055933333333     0          
T        Si     0.155540000000     0.617743333333     0.188240000000     0          
T        Si     0.151255000000     0.571156666667     0.260013333333     0          
T        Si     0.197105000000     0.492970000000     0.306603333333     0          
T        Si     0.246435000000     0.502523333333     0.278086666667     0          
T        Si     0.228875000000     0.584730000000     0.222206666667     0          
T        Si     0.245220000000     0.630416666667     0.277700000000     0          
T        Si     0.196070000000     0.622123333333     0.302916666667     0          
T        Si     0.237930000000     0.628936666667     0.157726666667     0          
T        Si     0.228195000000     0.379550000000     0.218036666667     0          
T        Si     0.243390000000     0.422816666667     0.275293333333     0          
T        Si     0.194935000000     0.414303333333     0.301243333333     0          
T        Si     0.149015000000     0.367216666667     0.257823333333     0          
T        Si     0.155195000000     0.369686666667     0.187630000000     0          
T        Si     0.082765000000     0.414366666667     0.112896666667     0          
T        Si     0.049865000000     0.496390000000     0.055836666667     0          
T        Si     0.036575000000     0.381530000000     0.138183333333     0          
T        Si     0.076435000000     0.352450000000     0.230840000000     0          
T        Si     0.034540000000     0.366146666667     0.261800000000     0          
T        Si     0.022955000000     0.414020000000     0.301620000000     0          
O        O      0.036315000000     0.452356666667     0.307250000000     0          
O        O      0.036250000000     0.524963333333     0.279906666667     0          
O        O      0.000290000000     0.591426666667     0.224033333333     0          
O        O      0.043040000000     0.586536666667     0.298586666667     0          
O        O      0.040520000000     0.658216666667     0.292606666667     0          
O        O      0.065520000000     0.575303333333     0.257726666667     0          
O        O      0.085520000000     0.640013333333     0.247546666667     0          
O        O      0.112555000000     0.581896666667     0.244313333333     0          
O        O      0.049695000000     0.617300000000     0.186640000000     0          
O        O      0.002170000000     0.623523333333     0.112863333333     0          
O        O      0.066065000000     0.612396666667     0.138543333333     0          
O        O      0.080025000000     0.586526666667     0.096936666667     0          
O        O      0.042510000000     0.607236666667     0.018616666667     0          
O        O      0.017595000000     0.577120000000     0.059740000000     0          
O        O      0.062640000000     0.534490000000     0.063256666667     0          
O        O      0.066380000000     0.659910000000     0.079636666667     0          
O        O      0.035920000000     0.382753333333     0.011123333333     0          
O        O      0.011870000000     0.372506666667     0.054853333333     0          
O        O      0.068355000000     0.397050000000     0.077896666667     0          
O        O      0.123395000000     0.619083333333     0.145603333333     0          
O        O      0.155165000000     0.659090000000     0.191790000000     0          
O        O      0.189385000000     0.604020000000     0.192643333333     0          
O        O      0.154505000000     0.587326666667     0.223050000000     0          
O        O      0.174975000000     0.589146666667     0.293326666667     0          
O        O      0.163405000000     0.525560000000     0.279230000000     0          
O        O      0.187120000000     0.451956666667     0.307900000000     0          
O        O      0.218500000000     0.500580000000     0.287663333333     0          
O        O      0.252440000000     0.464470000000     0.270840000000     0          
O        O      0.281165000000     0.506190000000     0.315430000000     0          
O        O      0.233730000000     0.539123333333     0.238683333333     0          
O        O      0.246555000000     0.599323333333     0.259360000000     0          
O        O      0.277930000000     0.618360000000     0.323043333333     0          
O        O      0.211740000000     0.632436666667     0.277170000000     0          
O        O      0.170895000000     0.659250000000     0.290983333333     0          
O        O      0.245725000000     0.597026666667     0.197920000000     0          
O        O      0.198030000000     0.638823333333     0.123633333333     0          
O        O      0.250000000000     0.333333333333     0.166666666667     0          
O        O      0.242390000000     0.386956666667     0.190746666667     0          
O        O      0.188230000000     0.381586666667     0.190420000000     0          
O        O      0.245980000000     0.337876666667     0.252163333333     0          
O        O      0.236155000000     0.411270000000     0.238493333333     0          
O        O      0.274045000000     0.392033333333     0.316830000000     0          
O        O      0.209825000000     0.424000000000     0.274660000000     0          
O        O      0.160800000000     0.398863333333     0.278430000000     0          
O        O      0.109560000000     0.368773333333     0.238853333333     0          
O        O      0.155040000000     0.376410000000     0.222986666667     0          
O        O      0.122370000000     0.396460000000     0.145203333333     0          
O        O      0.077180000000     0.459860000000     0.093756666667     0          
O        O      0.014185000000     0.495856666667     0.050203333333     0          
O        O      0.045700000000     0.494953333333     0.016256666667     0          
O        O      0.063275000000     0.404406666667     0.134176666667     0          
O        O      0.035775000000     0.344706666667     0.126116666667     0          
O        O      0.047495000000     0.367956666667     0.183563333333     0          
O        O      0.063095000000     0.366420000000     0.253270000000     0          
O        O      0.037315000000     0.397700000000     0.281323333333     0          
T        Si     0.474105000000     0.505886666667     0.028296666667     0          
T        Si     0.463710000000     0.430336666667     0.068243333333     0          
T        Si     0.471335000000     0.380190000000     0.027753333333     0          
T        Si     0.421650000000     0.396423333333     0.099393333333     0          
T        Si     0.461550000000     0.367300000000     0.192240000000     0          
T        Si     0.415860000000     0.380753333333     0.217836666667     0          
T        Si     0.449235000000     0.423620000000     0.273786666667     0          
T        Si     0.454420000000     0.630200000000     0.277400000000     0          
T        Si     0.344460000000     0.382256666667     0.145093333333     0          
T        Si     0.348745000000     0.428843333333     0.073320000000     0          
T        Si     0.302895000000     0.507030000000     0.026730000000     0          
T        Si     0.253565000000     0.497476666667     0.055246666667     0          
T        Si     0.271125000000     0.415270000000     0.111126666667     0          
T        Si     0.254780000000     0.369583333333     0.055633333333     0          
T        Si     0.303930000000     0.377876666667     0.030416666667     0          
T        Si     0.262070000000     0.371063333333     0.175606666667     0          
T        Si     0.271805000000     0.620450000000     0.115296666667     0          
T        Si     0.256610000000     0.577183333333     0.058040000000     0          
T        Si     0.305065000000     0.585696666667     0.032090000000     0          
T        Si     0.350985000000     0.632783333333     0.075510000000     0          
T        Si     0.344805000000     0.630313333333     0.145703333333     0          
T        Si     0.417235000000     0.585633333333     0.220436666667     0          
T        Si     0.450135000000     0.503610000000     0.277496666667     0          
T        Si     0.463425000000     0.618470000000     0.195150000000     0          
T        Si     0.423565000000     0.647550000000     0.102493333333     0          
T        Si     0.465460000000     0.633853333333     0.071533333333     0          
T        Si     0.477045000000     0.585980000000     0.031713333333     0          
O        O      0.463685000000     0.547643333333     0.026083333333     0          
O        O      0.463750000000     0.475036666667     0.053426666667     0          
O        O      0.499710000000     0.408573333333     0.109300000000     0          
O        O      0.456960000000     0.413463333333     0.034746666667     0          
O        O      0.459480000000     0.341783333333     0.040726666667     0          
O        O      0.434480000000     0.424696666667     0.075606666667     0          
O        O      0.414480000000     0.359986666667     0.085786666667     0          
O        O      0.387445000000     0.418103333333     0.089020000000     0          
O        O      0.450305000000     0.382700000000     0.146693333333     0          
O        O      0.497830000000     0.376476666667     0.220470000000     0          
O        O      0.433935000000     0.387603333333     0.194790000000     0          
O        O      0.419975000000     0.413473333333     0.236396666667     0          
O        O      0.457490000000     0.392763333333     0.314716666667     0          
O        O      0.482405000000     0.422880000000     0.273593333333     0          
O        O      0.437360000000     0.465510000000     0.270076666667     0          
O        O      0.433620000000     0.340090000000     0.253696666667     0          
O        O      0.464080000000     0.617246666667     0.322210000000     0          
O        O      0.488130000000     0.627493333333     0.278480000000     0          
O        O      0.431645000000     0.602950000000     0.255436666667     0          
O        O      0.376605000000     0.380916666667     0.187730000000     0          
O        O      0.344835000000     0.340910000000     0.141543333333     0          
O        O      0.310615000000     0.395980000000     0.140690000000     0          
O        O      0.345495000000     0.412673333333     0.110283333333     0          
O        O      0.325025000000     0.410853333333     0.040006666667     0          
O        O      0.336595000000     0.474440000000     0.054103333333     0          
O        O      0.312880000000     0.548043333333     0.025433333333     0          
O        O      0.281500000000     0.499420000000     0.045670000000     0          
O        O      0.247560000000     0.535530000000     0.062493333333     0          
O        O      0.218835000000     0.493810000000     0.017903333333     0          
O        O      0.266270000000     0.460876666667     0.094650000000     0          
O        O      0.253445000000     0.400676666667     0.073973333333     0          
O        O      0.222070000000     0.381640000000     0.010290000000     0          
O        O      0.288260000000     0.367563333333     0.056163333333     0          
O        O      0.329105000000     0.340750000000     0.042350000000     0          
O        O      0.254275000000     0.402973333333     0.135413333333     0          
O        O      0.301970000000     0.361176666667     0.209700000000     0          
O        O      0.257610000000     0.613043333333     0.142586666667     0          
O        O      0.311770000000     0.618413333333     0.142913333333     0          
O        O      0.254020000000     0.662123333333     0.081170000000     0          
O        O      0.263845000000     0.588730000000     0.094840000000     0          
O        O      0.225955000000     0.607966666667     0.016503333333     0          
O        O      0.290175000000     0.576000000000     0.058673333333     0          
O        O      0.339200000000     0.601136666667     0.054903333333     0          
O        O      0.390440000000     0.631226666667     0.094480000000     0          
O        O      0.344960000000     0.623590000000     0.110346666667     0          
O        O      0.377630000000     0.603540000000     0.188130000000     0          
O        O      0.422820000000     0.540140000000     0.239576666667     0          
O        O      0.485815000000     0.504143333333     0.283130000000     0          
O        O      0.454300000000     0.505046666667     0.317076666667     0          
O        O      0.436725000000     0.595593333333     0.199156666667     0          
O        O      0.464225000000     0.655293333333     0.207216666667     0          
O        O      0.452505000000     0.632043333333     0.149770000000     0          
O        O      0.436905000000     0.633580000000     0.080063333333     0          
O        O      0.462685000000     0.602300000000     0.052010000000     0          
T        Si     0.025895000000     0.494113333333     0.638370000000     0          
T        Si     0.036290000000     0.569663333333     0.598423333333     0          
T        Si     0.028665000000     0.619810000000     0.638913333333     0          
T        Si     0.078350000000     0.603576666667     0.567273333333     0          
T        Si     0.038450000000     0.632700000000     0.474426666667     0          
T        Si     0.084140000000     0.619246666667     0.448830000000     0          
T        Si     0.050765000000     0.576380000000     0.392880000000     0          
T        Si     0.045580000000     0.369800000000     0.389266666667     0          
T        Si     0.155540000000     0.617743333333     0.521573333333     0          
T        Si     0.151255000000     0.571156666667     0.593346666667     0          
T        Si     0.197105000000     0.492970000000     0.639936666667     0          
T        Si     0.246435000000     0.502523333333     0.611420000000     0          
T        Si     0.228875000000     0.584730000000     0.555540000000     0          
T        Si     0.245220000000     0.630416666667     0.611033333333     0          
T        Si     0.196070000000     0.622123333333     0.636250000000     0          
T        Si     0.237930000000     0.628936666667     0.491060000000     0          
T        Si     0.228195000000     0.379550000000     0.551370000000     0          
T        Si     0.243390000000     0.422816666667     0.608626666667     0          
T        Si     0.194935000000     0.414303333333     0.634576666667     0          
T        Si     0.149015000000     0.367216666667     0.591156666667     0          
T        Si     0.155195000000     0.369686666667     0.520963333333     0          
T        Si     0.082765000000     0.414366666667     0.446230000000     0          
T        Si     0.049865000000     0.496390000000     0.389170000000     0          
T        Si     0.036575000000     0.381530000000     0.471516666667     0          
T        Si     0.076435000000     0.352450000000     0.564173333333     0          
T        Si     0.034540000000     0.366146666667     0.595133333333     0          
T        Si     0.022955000000     0.414020000000     0.634953333333     0          
O        O      0.036315000000     0.452356666667     0.640583333333     0          
O        O      0.036250000000     0.524963333333     0.613240000000     0          
O        O      0.000290000000     0.591426666667     0.557366666667     0          
O        O      0.043040000000     0.586536666667     0.631920000000     0          
O        O      0.040520000000     0.658216666667     0.625940000000     0          
O        O      0.065520000000     0.575303333333     0.591060000000     0          
O        O      0.085520000000     0.640013333333     0.580880000000     0          
O        O      0.112555000000     0.581896666667     0.577646666667     0          
O        O      0.049695000000     0.617300000000     0.519973333333     0          
O        O      0.002170000000     0.623523333333     0.446196666667     0          
O        O      0.066065000000     0.612396666667     0.471876666667     0          
O        O      0.080025000000     0.586526666667     0.430270000000     0          
O        O      0.042510000000     0.607236666667     0.351950000000     0          
O        O      0.017595000000     0.577120000000     0.393073333333     0          
O        O      0.062640000000     0.534490000000     0.396590000000     0          
O        O      0.066380000000     0.659910000000     0.412970000000     0          
O        O      0.035920000000     0.382753333333     0.344456666667     0          
O        O      0.011870000000     0.372506666667     0.388186666667     0          
O        O      0.068355000000     0.397050000000     0.411230000000     0          
O        O      0.123395000000     0.619083333333     0.478936666667     0          
O        O      0.155165000000     0.659090000000     0.525123333333     0          
O        O      0.189385000000     0.604020000000     0.525976666667     0          
O        O      0.154505000000     0.587326666667     0.556383333333     0          
O        O      0.174975000000     0.589146666667     0.626660000000     0          
O        O      0.163405000000     0.525560000000     0.612563333333     0          
O        O      0.187120000000     0.451956666667     0.641233333333     0          
O        O      0.218500000000     0.500580000000     0.620996666667     0          
O        O      0.252440000000     0.464470000000     0.604173333333     0          
O        O      0.281165000000     0.506190000000     0.648763333333     0          
O        O      0.233730000000     0.539123333333     0.572016666667     0          
O        O      0.246555000000     0.599323333333     0.592693333333     0          
O        O      0.277930000000     0.618360000000     0.656376666667     0          
O        O      0.211740000000     0.632436666667     0.610503333333     0          
O        O      0.170895000000     0.659250000000     0.624316666667     0          
O        O      0.245725000000     0.597026666667     0.531253333333     0          
O        O      0.198030000000     0.638823333333     0.456966666667     0          
O        O      0.250000000000     0.333333333333     0.500000000000     0          
O        O      0.242390000000     0.386956666667     0.524080000000     0          
O        O      0.188230000000     0.381586666667     0.523753333333     0          
O        O      0.245980000000     0.337876666667     0.585496666667     0          
O        O      0.236155000000     0.411270000000     0.571826666667     0          
O        O      0.274045000000     0.392033333333     0.650163333333     0          
O        O      0.209825000000     0.424000000000     0.607993333333     0          
O        O      0.160800000000     0.398863333333     0.611763333333     0          
O        O      0.109560000000     0.368773333333     0.572186666667     0          
O        O      0.155040000000     0.376410000000     0.556320000000     0          
O        O      0.122370000000     0.396460000000     0.478536666667     0          
O        O      0.077180000000     0.459860000000     0.427090000000     0          
O        O      0.014185000000     0.495856666667     0.383536666667     0          
O        O      0.045700000000     0.494953333333     0.349590000000     0          
O        O      0.063275000000     0.404406666667     0.467510000000     0          
O        O      0.035775000000     0.344706666667     0.459450000000     0          
O        O      0.047495000000     0.367956666667     0.516896666667     0          
O        O      0.063095000000     0.366420000000     0.586603333333     0          
O        O      0.037315000000     0.397700000000     0.614656666667     0          
T        Si     0.474105000000     0.505886666667     0.361630000000     0          
T        Si     0.463710000000     0.430336666667     0.401576666667     0          
T        Si     0.471335000000     0.380190000000     0.361086666667     0          
T        Si     0.421650000000     0.396423333333     0.432726666667     0          
T        Si     0.461550000000     0.367300000000     0.525573333333     0          
T        Si     0.415860000000     0.380753333333     0.551170000000     0          
T        Si     0.449235000000     0.423620000000     0.607120000000     0          
T        Si     0.454420000000     0.630200000000     0.610733333333     0          
T        Si     0.344460000000     0.382256666667     0.478426666667     0          
T        Si     0.348745000000     0.428843333333     0.406653333333     0          
T        Si     0.302895000000     0.507030000000     0.360063333333     0          
T        Si     0.253565000000     0.497476666667     0.388580000000     0          
T        Si     0.271125000000     0.415270000000     0.444460000000     0          
T        Si     0.254780000000     0.369583333333     0.388966666667     0          
T        Si     0.303930000000     0.377876666667     0.363750000000     0          
T        Si     0.262070000000     0.371063333333     0.508940000000     0          
T        Si     0.271805000000     0.620450000000     0.448630000000     0          
T        Si     0.256610000000     0.577183333333     0.391373333333     0          
T        Si     0.305065000000     0.585696666667     0.365423333333     0          
T        Si     0.350985000000     0.632783333333     0.408843333333     0          
T        Si     0.344805000000     0.630313333333     0.479036666667     0          
T        Si     0.417235000000     0.585633333333     0.553770000000     0          
T        Si     0.450135000000     0.503610000000     0.610830000000     0          
T        Si     0.463425000000     0.618470000000     0.528483333333     0          
T        Si     0.423565000000     0.647550000000     0.435826666667     0          
T        Si     0.465460000000     0.633853333333     0.404866666667     0          
T        Si     0.477045000000     0.585980000000     0.365046666667     0          
O        O      0.463685000000     0.547643333333     0.359416666667     0          
O        O      0.463750000000     0.475036666667     0.386760000000     0          
O        O      0.499710000000     0.408573333333     0.442633333333     0          
O        O      0.456960000000     0.413463333333     0.368080000000     0          
O        O      0.459480000000     0.341783333333     0.374060000000     0          
O        O      0.434480000000     0.424696666667     0.408940000000     0          
O        O      0.414480000000     0.359986666667     0.419120000000     0          
O        O      0.387445000000     0.418103333333     0.422353333333     0          
O        O      0.450305000000     0.382700000000     0.480026666667     0          
O        O      0.497830000000     0.376476666667     0.553803333333     0          
O        O      0.433935000000     0.387603333333     0.528123333333     0          
O        O      0.419975000000     0.413473333333     0.569730000000     0          
O        O      0.457490000000     0.392763333333     0.648050000000     0          
O        O      0.482405000000     0.422880000000     0.606926666667     0          
O        O      0.437360000000     0.465510000000     0.603410000000     0          
O        O      0.433620000000     0.340090000000     0.587030000000     0          
O        O      0.464080000000     0.617246666667     0.655543333333     0          
O        O      0.488130000000     0.627493333333     0.611813333333     0          
O        O      0.431645000000     0.602950000000     0.588770000000     0          
O        O      0.376605000000     0.380916666667     0.521063333333     0          
O        O      0.344835000000     0.340910000000     0.474876666667     0          
O        O      0.310615000000     0.395980000000     0.474023333333     0          
O        O      0.345495000000     0.412673333333     0.443616666667     0          
O        O      0.325025000000     0.410853333333     0.373340000000     0          
O        O      0.336595000000     0.474440000000     0.387436666667     0          
O        O      0.312880000000     0.548043333333     0.358766666667     0          
O        O      0.281500000000     0.499420000000     0.379003333333     0          
O        O      0.247560000000     0.535530000000     0.395826666667     0          
O        O      0.218835000000     0.493810000000     0.351236666667     0          
O        O      0.266270000000     0.460876666667     0.427983333333     0          
O        O      0.253445000000     0.400676666667     0.407306666667     0          
O        O      0.222070000000     0.381640000000     0.343623333333     0          
O        O      0.288260000000     0.367563333333     0.389496666667     0          
O        O      0.329105000000     0.340750000000     0.375683333333     0          
O        O      0.254275000000     0.402973333333     0.468746666667     0          
O        O      0.301970000000     0.361176666667     0.543033333333     0          
O        O      0.257610000000     0.613043333333     0.475920000000     0          
O        O      0.311770000000     0.618413333333     0.476246666667     0          
O        O      0.254020000000     0.662123333333     0.414503333333     0          
O        O      0.263845000000     0.588730000000     0.428173333333     0          
O        O      0.225955000000     0.607966666667     0.349836666667     0          
O        O      0.290175000000     0.576000000000     0.392006666667     0          
O        O      0.339200000000     0.601136666667     0.388236666667     0          
O        O      0.390440000000     0.631226666667     0.427813333333     0          
O        O      0.344960000000     0.623590000000     0.443680000000     0          
O        O      0.377630000000     0.603540000000     0.521463333333     0          
O        O      0.422820000000     0.540140000000     0.572910000000     0          
O        O      0.485815000000     0.504143333333     0.616463333333     0          
O        O      0.454300000000     0.505046666667     0.650410000000     0          
O        O      0.436725000000     0.595593333333     0.532490000000     0          
O        O      0.464225000000     0.655293333333     0.540550000000     0          
O        O      0.452505000000     0.632043333333     0.483103333333     0          
O        O      0.436905000000     0.633580000000     0.413396666667     0          
O        O      0.462685000000     0.602300000000     0.385343333333     0          
T        Si     0.025895000000     0.494113333333     0.971703333333     0          
T        Si     0.036290000000     0.569663333333     0.931756666667     0          
T        Si     0.028665000000     0.619810000000     0.972246666667     0          
T        Si     0.078350000000     0.603576666667     0.900606666667     0          
T        Si     0.038450000000     0.632700000000     0.807760000000     0          
T        Si     0.084140000000     0.619246666667     0.782163333333     0          
T        Si     0.050765000000     0.576380000000     0.726213333333     0          
T        Si     0.045580000000     0.369800000000     0.722600000000     0          
T        Si     0.155540000000     0.617743333333     0.854906666667     0          
T        Si     0.151255000000     0.571156666667     0.926680000000     0          
T        Si     0.197105000000     0.492970000000     0.973270000000     0          
T        Si     0.246435000000     0.502523333333     0.944753333333     0          
T        Si     0.228875000000     0.584730000000     0.888873333333     0          
T        Si     0.245220000000     0.630416666667     0.944366666667     0          
T        Si     0.196070000000     0.622123333333     0.969583333333     0          
T        Si     0.237930000000     0.628936666667     0.824393333333     0          
T        Si     0.228195000000     0.379550000000     0.884703333333     0          
T        Si     0.243390000000     0.422816666667     0.941960000000     0          
T        Si     0.194935000000     0.414303333333     0.967910000000     0          
T        Si     0.149015000000     0.367216666667     0.924490000000     0          
T        Si     0.155195000000     0.369686666667     0.854296666667     0          
T        Si     0.082765000000     0.414366666667     0.779563333333     0          
T        Si     0.049865000000     0.496390000000     0.722503333333     0          
T        Si     0.036575000000     0.381530000000     0.804850000000     0          
T        Si     0.076435000000     0.352450000000     0.897506666667     0          
T        Si     0.034540000000     0.366146666667     0.928466666667     0          
T        Si     0.022955000000     0.414020000000     0.968286666667     0          
O        O      0.036315000000     0.452356666667     0.973916666667     0          
O        O      0.036250000000     0.524963333333     0.946573333333     0          
O        O      0.000290000000     0.591426666667     0.890700000000     0          
O        O      0.043040000000     0.586536666667     0.965253333333     0          
O        O      0.040520000000     0.658216666667     0.959273333333     0          
O        O      0.065520000000     0.575303333333     0.924393333333     0          
O        O      0.085520000000     0.640013333333     0.914213333333     0          
O        O      0.112555000000     0.581896666667     0.910980000000     0          
O        O      0.049695000000     0.617300000000     0.853306666667     0          
O        O      0.002170000000     0.623523333333     0.779530000000     0          
O        O      0.066065000000     0.612396666667     0.805210000000     0          
O        O      0.080025000000     0.586526666667     0.763603333333     0          
O        O      0.042510000000     0.607236666667     0.685283333333     0          
O        O      0.017595000000     0.577120000000     0.726406666667     0          
O        O      0.062640000000     0.534490000000     0.729923333333     0          
O        O      0.066380000000     0.659910000000     0.746303333333     0          
O        O      0.035920000000     0.382753333333     0.677790000000     0          
O        O      0.011870000000     0.372506666667     0.721520000000     0          
O        O      0.068355000000     0.397050000000     0.744563333333     0          
O        O      0.123395000000     0.619083333333     0.812270000000     0          
O        O      0.155165000000     0.659090000000     0.858456666667     0          
O        O      0.189385000000     0.604020000000     0.859310000000     0          
O        O      0.154505000000     0.587326666667     0.889716666667     0          
O        O      0.174975000000     0.589146666667     0.959993333333     0          
O        O      0.163405000000     0.525560000000     0.945896666667     0          
O        O      0.187120000000     0.451956666667     0.974566666667     0          
O        O      0.218500000000     0.500580000000     0.954330000000     0          
O        O      0.252440000000     0.464470000000     0.937506666667     0          
O        O      0.281165000000     0.506190000000     0.982096666667     0          
O        O      0.233730000000     0.539123333333     0.905350000000     0          
O        O      0.246555000000     0.599323333333     0.926026666667     0          
O        O      0.277930000000     0.618360000000     0.989710000000     0          
O        O      0.211740000000     0.632436666667     0.943836666667     0          
O        O      0.170895000000     0.659250000000     0.957650000000     0          
O        O      0.245725000000     0.597026666667     0.864586666667     0          
O        O      0.198030000000     0.638823333333     0.790300000000     0          
O        O      0.250000000000     0.333333333333     0.833333333333     0          
O        O      0.242390000000     0.386956666667     0.857413333333     0          
O        O      0.188230000000     0.381586666667     0.857086666667     0          
O        O      0.245980000000     0.337876666667     0.918830000000     0          
O        O      0.236155000000     0.411270000000     0.905160000000     0          
O        O      0.274045000000     0.392033333333     0.983496666667     0          
O        O      0.209825000000     0.424000000000     0.941326666667     0          
O        O      0.160800000000     0.398863333333     0.945096666667     0          
O        O      0.109560000000     0.368773333333     0.905520000000     0          
O        O      0.155040000000     0.376410000000     0.889653333333     0          
O        O      0.122370000000     0.396460000000     0.811870000000     0          
O        O      0.077180000000     0.459860000000     0.760423333333     0          
O        O      0.014185000000     0.495856666667     0.716870000000     0          
O        O      0.045700000000     0.494953333333     0.682923333333     0          
O        O      0.063275000000     0.404406666667     0.800843333333     0          
O        O      0.035775000000     0.344706666667     0.792783333333     0          
O        O      0.047495000000     0.367956666667     0.850230000000     0          
O        O      0.063095000000     0.366420000000     0.919936666667     0          
O        O      0.037315000000     0.397700000000     0.947990000000     0          
T        Si     0.474105000000     0.505886666667     0.694963333333     0          
T        Si     0.463710000000     0.430336666667     0.734910000000     0          
T        Si     0.471335000000     0.380190000000     0.694420000000     0          
T        Si     0.421650000000     0.396423333333     0.766060000000     0          
T        Si     0.461550000000     0.367300000000     0.858906666667     0          
T        Si     0.415860000000     0.380753333333     0.884503333333     0          
T        Si     0.449235000000     0.423620000000     0.940453333333     0          
T        Si     0.454420000000     0.630200000000     0.944066666667     0          
T        Si     0.344460000000     0.382256666667     0.811760000000     0          
T        Si     0.348745000000     0.428843333333     0.739986666667     0          
T        Si     0.302895000000     0.507030000000     0.693396666667     0          
T        Si     0.253565000000     0.497476666667     0.721913333333     0          
T        Si     0.271125000000     0.415270000000     0.777793333333     0          
T        Si     0.254780000000     0.369583333333     0.722300000000     0          
T        Si     0.303930000000     0.377876666667     0.697083333333     0          
T        Si     0.262070000000     0.371063333333     0.842273333333     0          
T        Si     0.271805000000     0.620450000000     0.781963333333     0          
T        Si     0.256610000000     0.577183333333     0.724706666667     0          
T        Si     0.305065000000     0.585696666667     0.698756666667     0          
T        Si     0.350985000000     0.632783333333     0.742176666667     0          
T        Si     0.344805000000     0.630313333333     0.812370000000     0          
T        Si     0.417235000000     0.585633333333     0.887103333333     0          
T        Si     0.450135000000     0.503610000000     0.944163333333     0          
T        Si     0.463425000000     0.618470000000     0.861816666667     0          
T        Si     0.423565000000     0.647550000000     0.769160000000     0          
T        Si     0.465460000000     0.633853333333     0.738200000000     0          
T        Si     0.477045000000     0.585980000000     0.698380000000     0          
O        O      0.463685000000     0.547643333333     0.692750000000     0          
O        O      0.463750000000     0.475036666667     0.720093333333     0          
O        O      0.499710000000     0.408573333333     0.775966666667     0          
O        O      0.456960000000     0.413463333333     0.701413333333     0          
O        O      0.459480000000     0.341783333333     0.707393333333     0          
O        O      0.434480000000     0.424696666667     0.742273333333     0          
O        O      0.414480000000     0.359986666667     0.752453333333     0          
O        O      0.387445000000     0.418103333333     0.755686666667     0          
O        O      0.450305000000     0.382700000000     0.813360000000     0          
O        O      0.497830000000     0.376476666667     0.887136666667     0          
O        O      0.433935000000     0.387603333333     0.861456666667     0          
O        O      0.419975000000     0.413473333333     0.903063333333     0          
O        O      0.457490000000     0.392763333333     0.981383333333     0          
O        O      0.482405000000     0.422880000000     0.940260000000     0          
O        O      0.437360000000     0.465510000000     0.936743333333     0          
O        O      0.433620000000     0.340090000000     0.920363333333     0          
O        O      0.464080000000     0.617246666667     0.988876666667     0          
O        O      0.488130000000     0.627493333333     0.945146666667     0          
O        O      0.431645000000     0.602950000000     0.922103333333     0          
O        O      0.376605000000     0.380916666667     0.854396666667     0          
O        O      0.344835000000     0.340910000000     0.808210000000     0          
O        O      0.310615000000     0.395980000000     0.807356666667     0          
O        O      0.345495000000     0.412673333333     0.776950000000     0          
O        O      0.325025000000     0.410853333333     0.706673333333     0          
O        O      0.336595000000     0.474440000000     0.720770000000     0          
O        O      0.312880000000     0.548043333333     0.692100000000     0          
O        O      0.281500000000     0.499420000000     0.712336666667     0          
O        O      0.247560000000     0.535530000000     0.729160000000     0          
O        O      0.218835000000     0.493810000000     0.684570000000     0          
O        O      0.266270000000     0.460876666667     0.761316666667     0          
O        O      0.253445000000     0.400676666667     0.740640000000     0          
O        O      0.222070000000     0.381640000000     0.676956666667     0          
O        O      0.288260000000     0.367563333333     0.722830000000     0          
O        O      0.329105000000     0.340750000000     0.709016666667     0          
O        O      0.254275000000     0.402973333333     0.802080000000     0          
O        O      0.301970000000     0.361176666667     0.876366666667     0          
O        O      0.257610000000     0.613043333333     0.809253333333     0          
O        O      0.311770000000     0.618413333333     0.809580000000     0          
O        O      0.254020000000     0.662123333333     0.747836666667     0          
O        O      0.263845000000     0.588730000000     0.761506666667     0          
O        O      0.225955000000     0.607966666667     0.683170000000     0          
O        O      0.290175000000     0.576000000000     0.725340000000     0          
O        O      0.339200000000     0.601136666667     0.721570000000     0          
O        O      0.390440000000     0.631226666667     0.761146666667     0          
O        O      0.344960000000     0.623590000000     0.777013333333     0          
O        O      0.377630000000     0.603540000000     0.854796666667     0          
O        O      0.422820000000     0.540140000000     0.906243333333     0          
O        O      0.485815000000     0.504143333333     0.949796666667     0          
O        O      0.454300000000     0.505046666667     0.983743333333     0          
O        O      0.436725000000     0.595593333333     0.865823333333     0          
O        O      0.464225000000     0.655293333333     0.873883333333     0          
O        O      0.452505000000     0.632043333333     0.816436666667     0          
O        O      0.436905000000     0.633580000000     0.746730000000     0          
O        O      0.462685000000     0.602300000000     0.718676666667     0          
T        Si     0.025895000000     0.827446666667     0.305036666667     0          
T        Si     0.036290000000     0.902996666667     0.265090000000     0          
T        Si     0.028665000000     0.953143333333     0.305580000000     0          
T        Si     0.078350000000     0.936910000000     0.233940000000     0          
T        Si     0.038450000000     0.966033333333     0.141093333333     0          
T        Si     0.084140000000     0.952580000000     0.115496666667     0          
T        Si     0.050765000000     0.909713333333     0.059546666667     0          
T        Si     0.045580000000     0.703133333333     0.055933333333     0          
T        Si     0.155540000000     0.951076666667     0.188240000000     0          
T        Si     0.151255000000     0.904490000000     0.260013333333     0          
T        Si     0.197105000000     0.826303333333     0.306603333333     0          
T        Si     0.246435000000     0.835856666667     0.278086666667     0          
T        Si     0.228875000000     0.918063333333     0.222206666667     0          
T        Si     0.245220000000     0.963750000000     0.277700000000     0          
T        Si     0.196070000000     0.955456666667     0.302916666667     0          
T        Si     0.237930000000     0.962270000000     0.157726666667     0          
T        Si     0.228195000000     0.712883333333     0.218036666667     0          
T        Si     0.243390000000     0.756150000000     0.275293333333     0          
T        Si     0.194935000000     0.747636666667     0.301243333333     0          
T        Si     0.149015000000     0.700550000000     0.257823333333     0          
T        Si     0.155195000000     0.703020000000     0.187630000000     0          
T        Si     0.082765000000     0.747700000000     0.112896666667     0          
T        Si     0.049865000000     0.829723333333     0.055836666667     0          
T        Si     0.036575000000     0.714863333333     0.138183333333     0          
T        Si     0.076435000000     0.685783333333     0.230840000000     0          
T        Si     0.034540000000     0.699480000000     0.261800000000     0          
T        Si     0.022955000000     0.747353333333     0.301620000000     0          
O        O      0.036315000000     0.785690000000     0.307250000000     0          
O        O      0.036250000000     0.858296666667     0.279906666667     0          
O        O      0.000290000000     0.924760000000     0.224033333333     0          
O        O      0.043040000000     0.919870000000     0.298586666667     0          
O        O      0.040520000000     0.991550000000     0.292606666667     0          
O        O      0.065520000000     0.908636666667     0.257726666667     0          
O        O      0.085520000000     0.973346666667     0.247546666667     0          
O        O      0.112555000000     0.915230000000     0.244313333333     0          
O        O      0.049695000000     0.950633333333     0.186640000000     0          
O        O      0.002170000000     0.956856666667     0.112863333333     0          
O        O      0.066065000000     0.945730000000     0.138543333333     0          
O        O      0.080025000000     0.919860000000     0.096936666667     0          
O        O      0.042510000000     0.940570000000     0.018616666667     0          
O        O      0.017595000000     0.910453333333     0.059740000000     0          
O        O      0.062640000000     0.867823333333     0.063256666667     0          
O        O      0.066380000000     0.993243333333     0.079636666667     0          
O        O      0.035920000000     0.716086666667     0.011123333333     0          
O        O      0.011870000000     0.705840000000     0.054853333333     0          
O        O      0.068355000000     0.730383333333     0.077896666667     0          
O        O      0.123395000000     0.952416666667     0.145603333333     0          
O        O      0.155165000000     0.992423333333     0.191790000000     0          
O        O      0.189385000000     0.937353333333     0.192643333333     0          
O        O      0.154505000000     0.920660000000     0.223050000000     0          
O        O      0.174975000000     0.922480000000     0.293326666667     0          
O        O      0.163405000000     0.858893333333     0.279230000000     0          
O        O      0.187120000000     0.785290000000     0.307900000000     0          
O        O      0.218500000000     0.833913333333     0.287663333333     0          
O        O      0.252440000000     0.797803333333     0.270840000000     0          
O        O      0.281165000000     0.839523333333     0.315430000000     0          
O        O      0.233730000000     0.872456666667     0.238683333333     0          
O        O      0.246555000000     0.932656666667     0.259360000000     0          
O        O      0.277930000000     0.951693333333     0.323043333333     0          
O        O      0.211740000000     0.965770000000     0.277170000000     0          
O        O      0.170895000000     0.992583333333     0.290983333333     0          
O        O      0.245725000000     0.930360000000     0.197920000000     0          
O        O      0.198030000000     0.972156666667     0.123633333333     0          
O        O      0.250000000000     0.666666666667     0.166666666667     0          
O        O      0.242390000000     0.720290000000     0.190746666667     0          
O        O      0.188230000000     0.714920000000     0.190420000000     0          
O        O      0.245980000000     0.671210000000     0.252163333333     0          
O        O      0.236155000000     0.744603333333     0.238493333333     0          
O        O      0.274045000000     0.725366666667     0.316830000000     0          
O        O      0.209825000000     0.757333333333     0.274660000000     0          
O        O      0.160800000000     0.732196666667     0.278430000000     0          
O        O      0.109560000000     0.702106666667     0.238853333333     0          
O        O      0.155040000000     0.709743333333     0.222986666667     0          
O        O      0.122370000000     0.729793333333     0.145203333333     0          
O        O      0.077180000000     0.793193333333     0.093756666667     0          
O        O      0.014185000000     0.829190000000     0.050203333333     0          
O        O      0.045700000000     0.828286666667     0.016256666667     0          
O        O      0.063275000000     0.737740000000     0.134176666667     0          
O        O      0.035775000000     0.678040000000     0.126116666667     0          
O        O      0.047495000000     0.701290000000     0.183563333333     0          
O        O      0.063095000000     0.699753333333     0.253270000000     0          
O        O      0.037315000000     0.731033333333     0.281323333333     0          
T        Si     0.474105000000     0.839220000000     0.028296666667     0          
T        Si     0.463710000000     0.763670000000     0.068243333333     0          
T        Si     0.471335000000     0.713523333333     0.027753333333     0          
T        Si     0.421650000000     0.729756666667     0.099393333333     0          
T        Si     0.461550000000     0.700633333333     0.192240000000     0          
T        Si     0.415860000000     0.714086666667     0.217836666667     0          
T        Si     0.449235000000     0.756953333333     0.273786666667     0          
T        Si     0.454420000000     0.963533333333     0.277400000000     0          
T        Si     0.344460000000     0.715590000000     0.145093333333     0          
T        Si     0.348745000000     0.762176666667     0.073320000000     0          
T        Si     0.302895000000     0.840363333333     0.026730000000     0          
T        Si     0.253565000000     0.830810000000     0.055246666667     0          
T        Si     0.271125000000     0.748603333333     0.111126666667     0          
T        Si     0.254780000000     0.702916666667     0.055633333333     0          
T        Si     0.303930000000     0.711210000000     0.030416666667     0          
T        Si     0.262070000000     0.704396666667     0.175606666667     0          
T        Si     0.271805000000     0.953783333333     0.115296666667     0          
T        Si     0.256610000000     0.910516666667     0.058040000000     0          
T        Si     0.305065000000     0.919030000000     0.032090000000     0          
T        Si     0.350985000000     0.966116666667     0.075510000000     0          
T        Si     0.344805000000     0.963646666667     0.145703333333     0          
T        Si     0.417235000000     0.918966666667     0.220436666667     0          
T        Si     0.450135000000     0.836943333333     0.277496666667     0          
T        Si     0.463425000000     0.951803333333     0.195150000000     0          
T        Si     0.423565000000     0.980883333333     0.102493333333     0          
T        Si     0.465460000000     0.967186666667     0.071533333333     0          
T        Si     0.477045000000     0.919313333333     0.031713333333     0          
O        O      0.463685000000     0.880976666667     0.026083333333     0          
O        O      0.463750000000     0.808370000000     0.053426666667     0          
O        O      0.499710000000     0.741906666667     0.109300000000     0          
O        O      0.456960000000     0.746796666667     0.034746666667     0          
O        O      0.459480000000     0.675116666667     0.040726666667     0          
O        O      0.434480000000     0.758030000000     0.075606666667     0          
O        O      0.414480000000     0.693320000000     0.085786666667     0          
O        O      0.387445000000     0.751436666667     0.089020000000     0          
O        O      0.450305000000     0.716033333333     0.146693333333     0          
O        O      0.497830000000     0.709810000000     0.220470000000     0          
O        O      0.433935000000     0.720936666667     0.194790000000     0          
O        O      0.419975000000     0.746806666667     0.236396666667     0          
O        O      0.457490000000     0.726096666667     0.314716666667     0          
O        O      0.482405000000     0.756213333333     0.273593333333     0          
O        O      0.437360000000     0.798843333333     0.270076666667     0          
O        O      0.433620000000     0.673423333333     0.253696666667     0          
O        O      0.464080000000     0.950580000000     0.322210000000     0          
O        O      0.488130000000     0.960826666667     0.278480000000     0          
O        O      0.431645000000     0.936283333333     0.255436666667     0          
O        O      0.376605000000     0.714250000000     0.187730000000     0          
O        O      0.344835000000     0.674243333333     0.141543333333     0          
O        O      0.310615000000     0.729313333333     0.140690000000     0          
O        O      0.345495000000     0.746006666667     0.110283333333     0          
O        O      0.325025000000     0.744186666667     0.040006666667     0          
O        O      0.336595000000     0.807773333333     0.054103333333     0          
O        O      0.312880000000     0.881376666667     0.025433333333     0          
O        O      0.281500000000     0.832753333333     0.045670000000     0          
O        O      0.247560000000     0.868863333333     0.062493333333     0          
O        O      0.218835000000     0.827143333333     0.017903333333     0          
O        O      0.266270000000     0.794210000000     0.094650000000     0          
O        O      0.253445000000     0.734010000000     0.073973333333     0          
O        O      0.222070000000     0.714973333333     0.010290000000     0          
O        O      0.288260000000     0.700896666667     0.056163333333     0          
O        O      0.329105000000     0.674083333333     0.042350000000     0          
O        O      0.254275000000     0.736306666667     0.135413333333     0          
O        O      0.301970000000     0.694510000000     0.209700000000     0          
O        O      0.257610000000     0.946376666667     0.142586666667     0          
O        O      0.311770000000     0.951746666667     0.142913333333     0          
O        O      0.254020000000     0.995456666667     0.081170000000     0          
O        O      0.263845000000     0.922063333333     0.094840000000     0          
O        O      0.225955000000     0.941300000000     0.016503333333     0          
O        O      0.290175000000     0.909333333333     0.058673333333     0          
O        O      0.339200000000     0.934470000000     0.054903333333     0          
O        O      0.390440000000     0.964560000000     0.094480000000     0          
O        O      0.344960000000     0.956923333333     0.110346666667     0          
O        O      0.377630000000     0.936873333333     0.188130000000     0          
O        O      0.422820000000     0.873473333333     0.239576666667     0          
O        O      0.485815000000     0.837476666667     0.283130000000     0          
O        O      0.454300000000     0.838380000000     0.317076666667     0          
O        O      0.436725000000     0.928926666667     0.199156666667     0          
O        O      0.464225000000     0.988626666667     0.207216666667     0          
O        O      0.452505000000     0.965376666667     0.149770000000     0          
O        O      0.436905000000     0.966913333333     0.080063333333     0          
O        O      0.462685000000     0.935633333333     0.052010000000     0          
T        Si     0.025895000000     0.827446666667     0.638370000000     0          
T        Si     0.036290000000     0.902996666667     0.598423333333     0          
T        Si     0.028665000000     0.953143333333     0.638913333333     0          
T        Si     0.078350000000     0.936910000000     0.567273333333     0          
T        Si     0.038450000000     0.966033333333     0.474426666667     0          
T        Si     0.084140000000     0.952580000000     0.448830000000     0          
T        Si     0.050765000000     0.909713333333     0.392880000000     0          
T        Si     0.045580000000     0.703133333333     0.389266666667     0          
T        Si     0.155540000000     0.951076666667     0.521573333333     0          
T        Si     0.151255000000     0.904490000000     0.593346666667     0          
T        Si     0.197105000000     0.826303333333     0.639936666667     0          
T        Si     0.246435000000     0.835856666667     0.611420000000     0          
T        Si     0.228875000000     0.918063333333     0.555540000000     0          
T        Si     0.245220000000     0.963750000000     0.611033333333     0          
T        Si     0.196070000000     0.955456666667     0.636250000000     0          
T        Si     0.237930000000     0.962270000000     0.491060000000     0          
T        Si     0.228195000000     0.712883333333     0.551370000000     0          
T        Si     0.243390000000     0.756150000000     0.608626666667     0          
T        Si     0.194935000000     0.747636666667     0.634576666667     0          
T        Si     0.149015000000     0.700550000000     0.591156666667     0          
T        Si     0.155195000000     0.703020000000     0.520963333333     0          
T        Si     0.082765000000     0.747700000000     0.446230000000     0          
T        Si     0.049865000000     0.829723333333     0.389170000000     0          
T        Si     0.036575000000     0.714863333333     0.471516666667     0          
T        Si     0.076435000000     0.685783333333     0.564173333333     0          
T        Si     0.034540000000     0.699480000000     0.595133333333     0          
T        Si     0.022955000000     0.747353333333     0.634953333333     0          
O        O      0.036315000000     0.785690000000     0.640583333333     0          
O        O      0.036250000000     0.858296666667     0.613240000000     0          
O        O      0.000290000000     0.924760000000     0.557366666667     0          
O        O      0.043040000000     0.919870000000     0.631920000000     0          
O        O      0.040520000000     0.991550000000     0.625940000000     0          
O        O      0.065520000000     0.908636666667     0.591060000000     0          
O        O      0.085520000000     0.973346666667     0.580880000000     0          
O        O      0.112555000000     0.915230000000     0.577646666667     0          
O        O      0.049695000000     0.950633333333     0.519973333333     0          
O        O      0.002170000000     0.956856666667     0.446196666667     0          
O        O      0.066065000000     0.945730000000     0.471876666667     0          
O        O      0.080025000000     0.919860000000     0.430270000000     0          
O        O      0.042510000000     0.940570000000     0.351950000000     0          
O        O      0.017595000000     0.910453333333     0.393073333333     0          
O        O      0.062640000000     0.867823333333     0.396590000000     0          
O        O      0.066380000000     0.993243333333     0.412970000000     0          
O        O      0.035920000000     0.716086666667     0.344456666667     0          
O        O      0.011870000000     0.705840000000     0.388186666667     0          
O        O      0.068355000000     0.730383333333     0.411230000000     0          
O        O      0.123395000000     0.952416666667     0.478936666667     0          
O        O      0.155165000000     0.992423333333     0.525123333333     0          
O        O      0.189385000000     0.937353333333     0.525976666667     0          
O        O      0.154505000000     0.920660000000     0.556383333333     0          
O        O      0.174975000000     0.922480000000     0.626660000000     0          
O        O      0.163405000000     0.858893333333     0.612563333333     0          
O        O      0.187120000000     0.785290000000     0.641233333333     0          
O        O      0.218500000000     0.833913333333     0.620996666667     0          
O        O      0.252440000000     0.797803333333     0.604173333333     0          
O        O      0.281165000000     0.839523333333     0.648763333333     0          
O        O      0.233730000000     0.872456666667     0.572016666667     0          
O        O      0.246555000000     0.932656666667     0.592693333333     0          
O        O      0.277930000000     0.951693333333     0.656376666667     0          
O        O      0.211740000000     0.965770000000     0.610503333333     0          
O        O      0.170895000000     0.992583333333     0.624316666667     0          
O        O      0.245725000000     0.930360000000     0.531253333333     0          
O        O      0.198030000000     0.972156666667     0.456966666667     0          
O        O      0.250000000000     0.666666666667     0.500000000000     0          
O        O      0.242390000000     0.720290000000     0.524080000000     0          
O        O      0.188230000000     0.714920000000     0.523753333333     0          
O        O      0.245980000000     0.671210000000     0.585496666667     0          
O        O      0.236155000000     0.744603333333     0.571826666667     0          
O        O      0.274045000000     0.725366666667     0.650163333333     0          
O        O      0.209825000000     0.757333333333     0.607993333333     0          
O        O      0.160800000000     0.732196666667     0.611763333333     0          
O        O      0.109560000000     0.702106666667     0.572186666667     0          
O        O      0.155040000000     0.709743333333     0.556320000000     0          
O        O      0.122370000000     0.729793333333     0.478536666667     0          
O        O      0.077180000000     0.793193333333     0.427090000000     0          
O        O      0.014185000000     0.829190000000     0.383536666667     0          
O        O      0.045700000000     0.828286666667     0.349590000000     0          
O        O      0.063275000000     0.737740000000     0.467510000000     0          
O        O      0.035775000000     0.678040000000     0.459450000000     0          
O        O      0.047495000000     0.701290000000     0.516896666667     0          
O        O      0.063095000000     0.699753333333     0.586603333333     0          
O        O      0.037315000000     0.731033333333     0.614656666667     0          
T        Si     0.474105000000     0.839220000000     0.361630000000     0          
T        Si     0.463710000000     0.763670000000     0.401576666667     0          
T        Si     0.471335000000     0.713523333333     0.361086666667     0          
T        Si     0.421650000000     0.729756666667     0.432726666667     0          
T        Si     0.461550000000     0.700633333333     0.525573333333     0          
T        Si     0.415860000000     0.714086666667     0.551170000000     0          
T        Si     0.449235000000     0.756953333333     0.607120000000     0          
T        Si     0.454420000000     0.963533333333     0.610733333333     0          
T        Si     0.344460000000     0.715590000000     0.478426666667     0          
T        Si     0.348745000000     0.762176666667     0.406653333333     0          
T        Si     0.302895000000     0.840363333333     0.360063333333     0          
T        Si     0.253565000000     0.830810000000     0.388580000000     0          
T        Si     0.271125000000     0.748603333333     0.444460000000     0          
T        Si     0.254780000000     0.702916666667     0.388966666667     0          
T        Si     0.303930000000     0.711210000000     0.363750000000     0          
T        Si     0.262070000000     0.704396666667     0.508940000000     0          
T        Si     0.271805000000     0.953783333333     0.448630000000     0          
T        Si     0.256610000000     0.910516666667     0.391373333333     0          
T        Si     0.305065000000     0.919030000000     0.365423333333     0          
T        Si     0.350985000000     0.966116666667     0.408843333333     0          
T        Si     0.344805000000     0.963646666667     0.479036666667     0          
T        Si     0.417235000000     0.918966666667     0.553770000000     0          
T        Si     0.450135000000     0.836943333333     0.610830000000     0          
T        Si     0.463425000000     0.951803333333     0.528483333333     0          
T        Si     0.423565000000     0.980883333333     0.435826666667     0          
T        Si     0.465460000000     0.967186666667     0.404866666667     0          
T        Si     0.477045000000     0.919313333333     0.365046666667     0          
O        O      0.463685000000     0.880976666667     0.359416666667     0          
O        O      0.463750000000     0.808370000000     0.386760000000     0          
O        O      0.499710000000     0.741906666667     0.442633333333     0          
O        O      0.456960000000     0.746796666667     0.368080000000     0          
O        O      0.459480000000     0.675116666667     0.374060000000     0          
O        O      0.434480000000     0.758030000000     0.408940000000     0          
O        O      0.414480000000     0.693320000000     0.419120000000     0          
O        O      0.387445000000     0.751436666667     0.422353333333     0          
O        O      0.450305000000     0.716033333333     0.480026666667     0          
O        O      0.497830000000     0.709810000000     0.553803333333     0          
O        O      0.433935000000     0.720936666667     0.528123333333     0          
O        O      0.419975000000     0.746806666667     0.569730000000     0          
O        O      0.457490000000     0.726096666667     0.648050000000     0          
O        O      0.482405000000     0.756213333333     0.606926666667     0          
O        O      0.437360000000     0.798843333333     0.603410000000     0          
O        O      0.433620000000     0.673423333333     0.587030000000     0          
O        O      0.464080000000     0.950580000000     0.655543333333     0          
O        O      0.488130000000     0.960826666667     0.611813333333     0          
O        O      0.431645000000     0.936283333333     0.588770000000     0          
O        O      0.376605000000     0.714250000000     0.521063333333     0          
O        O      0.344835000000     0.674243333333     0.474876666667     0          
O        O      0.310615000000     0.729313333333     0.474023333333     0          
O        O      0.345495000000     0.746006666667     0.443616666667     0          
O        O      0.325025000000     0.744186666667     0.373340000000     0          
O        O      0.336595000000     0.807773333333     0.387436666667     0          
O        O      0.312880000000     0.881376666667     0.358766666667     0          
O        O      0.281500000000     0.832753333333     0.379003333333     0          
O        O      0.247560000000     0.868863333333     0.395826666667     0          
O        O      0.218835000000     0.827143333333     0.351236666667     0          
O        O      0.266270000000     0.794210000000     0.427983333333     0          
O        O      0.253445000000     0.734010000000     0.407306666667     0          
O        O      0.222070000000     0.714973333333     0.343623333333     0          
O        O      0.288260000000     0.700896666667     0.389496666667     0          
O        O      0.329105000000     0.674083333333     0.375683333333     0          
O        O      0.254275000000     0.736306666667     0.468746666667     0          
O        O      0.301970000000     0.694510000000     0.543033333333     0          
O        O      0.257610000000     0.946376666667     0.475920000000     0          
O        O      0.311770000000     0.951746666667     0.476246666667     0          
O        O      0.254020000000     0.995456666667     0.414503333333     0          
O        O      0.263845000000     0.922063333333     0.428173333333     0          
O        O      0.225955000000     0.941300000000     0.349836666667     0          
O        O      0.290175000000     0.909333333333     0.392006666667     0          
O        O      0.339200000000     0.934470000000     0.388236666667     0          
O        O      0.390440000000     0.964560000000     0.427813333333     0          
O        O      0.344960000000     0.956923333333     0.443680000000     0          
O        O      0.377630000000     0.936873333333     0.521463333333     0          
O        O      0.422820000000     0.873473333333     0.572910000000     0          
O        O      0.485815000000     0.837476666667     0.616463333333     0          
O        O      0.454300000000     0.838380000000     0.650410000000     0          
O        O      0.436725000000     0.928926666667     0.532490000000     0          
O        O      0.464225000000     0.988626666667     0.540550000000     0          
O        O      0.452505000000     0.965376666667     0.483103333333     0          
O        O      0.436905000000     0.966913333333     0.413396666667     0          
O        O      0.462685000000     0.935633333333     0.385343333333     0          
T        Si     0.025895000000     0.827446666667     0.971703333333     0          
T        Si     0.036290000000     0.902996666667     0.931756666667     0          
T        Si     0.028665000000     0.953143333333     0.972246666667     0          
T        Si     0.078350000000     0.936910000000     0.900606666667     0          
T        Si     0.038450000000     0.966033333333     0.807760000000     0          
T        Si     0.084140000000     0.952580000000     0.782163333333     0          
T        Si     0.050765000000     0.909713333333     0.726213333333     0          
T        Si     0.045580000000     0.703133333333     0.722600000000     0          
T        Si     0.155540000000     0.951076666667     0.854906666667     0          
T        Si     0.151255000000     0.904490000000     0.926680000000     0          
T        Si     0.197105000000     0.826303333333     0.973270000000     0          
T        Si     0.246435000000     0.835856666667     0.944753333333     0          
T        Si     0.228875000000     0.918063333333     0.888873333333     0          
T        Si     0.245220000000     0.963750000000     0.944366666667     0          
T        Si     0.196070000000     0.955456666667     0.969583333333     0          
T        Si     0.237930000000     0.962270000000     0.824393333333     0          
T        Si     0.228195000000     0.712883333333     0.884703333333     0          
T        Si     0.243390000000     0.756150000000     0.941960000000     0          
T        Si     0.194935000000     0.747636666667     0.967910000000     0          
T        Si     0.149015000000     0.700550000000     0.924490000000     0          
T        Si     0.155195000000     0.703020000000     0.854296666667     0          
T        Si     0.082765000000     0.747700000000     0.779563333333     0          
T        Si     0.049865000000     0.829723333333     0.722503333333     0          
T        Si     0.036575000000     0.714863333333     0.804850000000     0          
T        Si     0.076435000000     0.685783333333     0.897506666667     0          
T        Si     0.034540000000     0.699480000000     0.928466666667     0          
T        Si     0.022955000000     0.747353333333     0.968286666667     0          
O        O      0.036315000000     0.785690000000     0.973916666667     0          
O        O      0.036250000000     0.858296666667     0.946573333333     0          
O        O      0.000290000000     0.924760000000     0.890700000000     0          
O        O      0.043040000000     0.919870000000     0.965253333333     0          
O        O      0.040520000000     0.991550000000     0.959273333333     0          
O        O      0.065520000000     0.908636666667     0.924393333333     0          
O        O      0.085520000000     0.973346666667     0.914213333333     0          
O        O      0.112555000000     0.915230000000     0.910980000000     0          
O        O      0.049695000000     0.950633333333     0.853306666667     0          
O        O      0.002170000000     0.956856666667     0.779530000000     0          
O        O      0.066065000000     0.945730000000     0.805210000000     0          
O        O      0.080025000000     0.919860000000     0.763603333333     0          
O        O      0.042510000000     0.940570000000     0.685283333333     0          
O        O      0.017595000000     0.910453333333     0.726406666667     0          
O        O      0.062640000000     0.867823333333     0.729923333333     0          
O        O      0.066380000000     0.993243333333     0.746303333333     0          
O        O      0.035920000000     0.716086666667     0.677790000000     0          
O        O      0.011870000000     0.705840000000     0.721520000000     0          
O        O      0.068355000000     0.730383333333     0.744563333333     0          
O        O      0.123395000000     0.952416666667     0.812270000000     0          
O        O      0.155165000000     0.992423333333     0.858456666667     0          
O        O      0.189385000000     0.937353333333     0.859310000000     0          
O        O      0.154505000000     0.920660000000     0.889716666667     0          
O        O      0.174975000000     0.922480000000     0.959993333333     0          
O        O      0.163405000000     0.858893333333     0.945896666667     0          
O        O      0.187120000000     0.785290000000     0.974566666667     0          
O        O      0.218500000000     0.833913333333     0.954330000000     0          
O        O      0.252440000000     0.797803333333     0.937506666667     0          
O        O      0.281165000000     0.839523333333     0.982096666667     0          
O        O      0.233730000000     0.872456666667     0.905350000000     0          
O        O      0.246555000000     0.932656666667     0.926026666667     0          
O        O      0.277930000000     0.951693333333     0.989710000000     0          
O        O      0.211740000000     0.965770000000     0.943836666667     0          
O        O      0.170895000000     0.992583333333     0.957650000000     0          
O        O      0.245725000000     0.930360000000     0.864586666667     0          
O        O      0.198030000000     0.972156666667     0.790300000000     0          
O        O      0.250000000000     0.666666666667     0.833333333333     0          
O        O      0.242390000000     0.720290000000     0.857413333333     0          
O        O      0.188230000000     0.714920000000     0.857086666667     0          
O        O      0.245980000000     0.671210000000     0.918830000000     0          
O        O      0.236155000000     0.744603333333     0.905160000000     0          
O        O      0.274045000000     0.725366666667     0.983496666667     0          
O        O      0.209825000000     0.757333333333     0.941326666667     0          
O        O      0.160800000000     0.732196666667     0.945096666667     0          
O        O      0.109560000000     0.702106666667     0.905520000000     0          
O        O      0.155040000000     0.709743333333     0.889653333333     0          
O        O      0.122370000000     0.729793333333     0.811870000000     0          
O        O      0.077180000000     0.793193333333     0.760423333333     0          
O        O      0.014185000000     0.829190000000     0.716870000000     0          
O        O      0.045700000000     0.828286666667     0.682923333333     0          
O        O      0.063275000000     0.737740000000     0.800843333333     0          
O        O      0.035775000000     0.678040000000     0.792783333333     0          
O        O      0.047495000000     0.701290000000     0.850230000000     0          
O        O      0.063095000000     0.699753333333     0.919936666667     0          
O        O      0.037315000000     0.731033333333     0.947990000000     0          
T        Si     0.474105000000     0.839220000000     0.694963333333     0          
T        Si     0.463710000000     0.763670000000     0.734910000000     0          
T        Si     0.471335000000     0.713523333333     0.694420000000     0          
T        Si     0.421650000000     0.729756666667     0.766060000000     0          
T        Si     0.461550000000     0.700633333333     0.858906666667     0          
T        Si     0.415860000000     0.714086666667     0.884503333333     0          
T        Si     0.449235000000     0.756953333333     0.940453333333     0          
T        Si     0.454420000000     0.963533333333     0.944066666667     0          
T        Si     0.344460000000     0.715590000000     0.811760000000     0          
T        Si     0.348745000000     0.762176666667     0.739986666667     0          
T        Si     0.302895000000     0.840363333333     0.693396666667     0          
T        Si     0.253565000000     0.830810000000     0.721913333333     0          
T        Si     0.271125000000     0.748603333333     0.777793333333     0          
T        Si     0.254780000000     0.702916666667     0.722300000000     0          
T        Si     0.303930000000     0.711210000000     0.697083333333     0          
T        Si     0.262070000000     0.704396666667     0.842273333333     0          
T        Si     0.271805000000     0.953783333333     0.781963333333     0          
T        Si     0.256610000000     0.910516666667     0.724706666667     0          
T        Si     0.305065000000     0.919030000000     0.698756666667     0          
T        Si     0.350985000000     0.966116666667     0.742176666667     0          
T        Si     0.344805000000     0.963646666667     0.812370000000     0          
T        Si     0.417235000000     0.918966666667     0.887103333333     0          
T        Si     0.450135000000     0.836943333333     0.944163333333     0          
T        Si     0.463425000000     0.951803333333     0.861816666667     0          
T        Si     0.423565000000     0.980883333333     0.769160000000     0          
T        Si     0.465460000000     0.967186666667     0.738200000000     0          
T        Si     0.477045000000     0.919313333333     0.698380000000     0          
O        O      0.463685000000     0.880976666667     0.692750000000     0          
O        O      0.463750000000     0.808370000000     0.720093333333     0          
O        O      0.499710000000     0.741906666667     0.775966666667     0          
O        O      0.456960000000     0.746796666667     0.701413333333     0          
O        O      0.459480000000     0.675116666667     0.707393333333     0          
O        O      0.434480000000     0.758030000000     0.742273333333     0          
O        O      0.414480000000     0.693320000000     0.752453333333     0          
O        O      0.387445000000     0.751436666667     0.755686666667     0          
O        O      0.450305000000     0.716033333333     0.813360000000     0          
O        O      0.497830000000     0.709810000000     0.887136666667     0          
O        O      0.433935000000     0.720936666667     0.861456666667     0          
O        O      0.419975000000     0.746806666667     0.903063333333     0          
O        O      0.457490000000     0.726096666667     0.981383333333     0          
O        O      0.482405000000     0.756213333333     0.940260000000     0          
O        O      0.437360000000     0.798843333333     0.936743333333     0          
O        O      0.433620000000     0.673423333333     0.920363333333     0          
O        O      0.464080000000     0.950580000000     0.988876666667     0          
O        O      0.488130000000     0.960826666667     0.945146666667     0          
O        O      0.431645000000     0.936283333333     0.922103333333     0          
O        O      0.376605000000     0.714250000000     0.854396666667     0          
O        O      0.344835000000     0.674243333333     0.808210000000     0          
O        O      0.310615000000     0.729313333333     0.807356666667     0          
O        O      0.345495000000     0.746006666667     0.776950000000     0          
O        O      0.325025000000     0.744186666667     0.706673333333     0          
O        O      0.336595000000     0.807773333333     0.720770000000     0          
O        O      0.312880000000     0.881376666667     0.692100000000     0          
O        O      0.281500000000     0.832753333333     0.712336666667     0          
O        O      0.247560000000     0.868863333333     0.729160000000     0          
O        O      0.218835000000     0.827143333333     0.684570000000     0          
O        O      0.266270000000     0.794210000000     0.761316666667     0          
O        O      0.253445000000     0.734010000000     0.740640000000     0          
O        O      0.222070000000     0.714973333333     0.676956666667     0          
O        O      0.288260000000     0.700896666667     0.722830000000     0          
O        O      0.329105000000     0.674083333333     0.709016666667     0          
O        O      0.254275000000     0.736306666667     0.802080000000     0          
O        O      0.301970000000     0.694510000000     0.876366666667     0          
O        O      0.257610000000     0.946376666667     0.809253333333     0          
O        O      0.311770000000     0.951746666667     0.809580000000     0          
O        O      0.254020000000     0.995456666667     0.747836666667     0          
O        O      0.263845000000     0.922063333333     0.761506666667     0          
O        O      0.225955000000     0.941300000000     0.683170000000     0          
O        O      0.290175000000     0.909333333333     0.725340000000     0          
O        O      0.339200000000     0.934470000000     0.721570000000     0          
O        O      0.390440000000     0.964560000000     0.761146666667     0          
O        O      0.344960000000     0.956923333333     0.777013333333     0          
O        O      0.377630000000     0.936873333333     0.854796666667     0          
O        O      0.422820000000     0.873473333333     0.906243333333     0          
O        O      0.485815000000     0.837476666667     0.949796666667     0          
O        O      0.454300000000     0.838380000000     0.983743333333     0          
O        O      0.436725000000     0.928926666667     0.865823333333     0          
O        O      0.464225000000     0.988626666667     0.873883333333     0          
O        O      0.452505000000     0.965376666667     0.816436666667     0          
O        O      0.436905000000     0.966913333333     0.746730000000     0          
O        O      0.462685000000     0.935633333333     0.718676666667     0          
T        Si     0.525895000000     0.160780000000     0.305036666667     0          
T        Si     0.536290000000     0.236330000000     0.265090000000     0          
T        Si     0.528665000000     0.286476666667     0.305580000000     0          
T        Si     0.578350000000     0.270243333333     0.233940000000     0          
T        Si     0.538450000000     0.299366666667     0.141093333333     0          
T        Si     0.584140000000     0.285913333333     0.115496666667     0          
T        Si     0.550765000000     0.243046666667     0.059546666667     0          
T        Si     0.545580000000     0.036466666667     0.055933333333     0          
T        Si     0.655540000000     0.284410000000     0.188240000000     0          
T        Si     0.651255000000     0.237823333333     0.260013333333     0          
T        Si     0.697105000000     0.159636666667     0.306603333333     0          
T        Si     0.746435000000     0.169190000000     0.278086666667     0          
T        Si     0.728875000000     0.251396666667     0.222206666667     0          
T        Si     0.745220000000     0.297083333333     0.277700000000     0          
T        Si     0.696070000000     0.288790000000     0.302916666667     0          
T        Si     0.737930000000     0.295603333333     0.157726666667     0          
T        Si     0.728195000000     0.046216666667     0.218036666667     0          
T        Si     0.743390000000     0.089483333333     0.275293333333     0          
T        Si     0.694935000000     0.080970000000     0.301243333333     0          
T        Si     0.649015000000     0.033883333333     0.257823333333     0          
T        Si     0.655195000000     0.036353333333     0.187630000000     0          
T        Si     0.582765000000     0.081033333333     0.112896666667     0          
T        Si     0.549865000000     0.163056666667     0.055836666667     0          
T        Si     0.536575000000     0.048196666667     0.138183333333     0          
T        Si     0.576435000000     0.019116666667     0.230840000000     0          
T        Si     0.534540000000     0.032813333333     0.261800000000     0          
T        Si     0.522955000000     0.080686666667     0.301620000000     0          
O        O      0.536315000000     0.119023333333     0.307250000000     0          
O        O      0.536250000000     0.191630000000     0.279906666667     0          
O        O      0.500290000000     0.258093333333     0.224033333333     0          
O        O      0.543040000000     0.253203333333     0.298586666667     0          
O        O      0.540520000000     0.324883333333     0.292606666667     0          
O        O      0.565520000000     0.241970000000     0.257726666667     0          
O        O      0.585520000000     0.306680000000     0.247546666667     0          
O        O      0.612555000000     0.248563333333     0.244313333333     0          
O        O      0.549695000000     0.283966666667     0.186640000000     0          
O        O      0.502170000000     0.290190000000     0.112863333333     0          
O        O      0.566065000000     0.279063333333     0.138543333333     0          
O        O      0.580025000000     0.253193333333     0.096936666667     0          
O        O      0.542510000000     0.273903333333     0.018616666667     0          
O        O      0.517595000000     0.243786666667     0.059740000000     0          
O        O      0.562640000000     0.201156666667     0.063256666667     0          
O        O      0.566380000000     0.326576666667     0.079636666667     0          
O        O      0.535920000000     0.049420000000     0.011123333333     0          
O        O      0.511870000000     0.039173333333     0.054853333333     0          
O        O      0.568355000000     0.063716666667     0.077896666667     0          
O        O      0.623395000000     0.285750000000     0.145603333333     0          
O        O      0.655165000000     0.325756666667     0.191790000000     0          
O        O      0.689385000000     0.270686666667     0.192643333333     0          
O        O      0.654505000000     0.253993333333     0.223050000000     0          
O        O      0.674975000000     0.255813333333     0.293326666667     0          
O        O      0.663405000000     0.192226666667     0.279230000000     0          
O        O      0.687120000000     0.118623333333     0.307900000000     0          
O        O      0.718500000000     0.167246666667     0.287663333333     0          
O        O      0.752440000000     0.131136666667     0.270840000000     0          
O        O      0.781165000000     0.172856666667     0.315430000000     0          
O        O      0.733730000000     0.205790000000     0.238683333333     0          
O        O      0.746555000000     0.265990000000     0.259360000000     0          
O        O      0.777930000000     0.285026666667     0.323043333333     0          
O        O      0.711740000000     0.299103333333     0.277170000000     0          
O        O      0.670895000000     0.325916666667     0.290983333333     0          
O        O      0.745725000000     0.263693333333     0.197920000000     0          
O        O      0.698030000000     0.305490000000     0.123633333333     0          
O        O      0.750000000000     0.000000000000     0.166666666667     0          
O        O      0.742390000000     0.053623333333     0.190746666667     0          
O        O      0.688230000000     0.048253333333     0.190420000000     0          
O        O      0.745980000000     0.004543333333     0.252163333333     0          
O        O      0.736155000000     0.077936666667     0.238493333333     0          
O        O      0.774045000000     0.058700000000     0.316830000000     0          
O        O      0.709825000000     0.090666666667     0.274660000000     0          
O        O      0.660800000000     0.065530000000     0.278430000000     0          
O        O      0.609560000000     0.035440000000     0.238853333333     0          
O        O      0.655040000000     0.043076666667     0.222986666667     0          
O        O      0.622370000000     0.063126666667     0.145203333333     0          
O        O      0.577180000000     0.126526666667     0.093756666667     0          
O        O      0.514185000000     0.162523333333     0.050203333333     0          
O        O      0.545700000000     0.161620000000     0.016256666667     0          
O        O      0.563275000000     0.071073333333     0.134176666667     0          
O        O      0.535775000000     0.011373333333     0.126116666667     0          
O        O      0.547495000000     0.034623333333     0.183563333333     0          
O        O      0.563095000000     0.033086666667     0.253270000000     0          
O        O      0.537315000000     0.064366666667     0.281323333333     0          
T        Si     0.974105000000     0.172553333333     0.028296666667     0          
T        Si     0.963710000000     0.097003333333     0.068243333333     0          
T        Si     0.971335000000     0.046856666667     0.027753333333     0          
T        Si     0.921650000000     0.063090000000     0.099393333333     0          
T        Si     0.961550000000     0.033966666667     0.192240000000     0          
T        Si     0.915860000000     0.047420000000     0.217836666667     0          
T        Si     0.949235000000     0.090286666667     0.273786666667     0          
T        Si     0.954420000000     0.296866666667     0.277400000000     0          
T        Si     0.844460000000     0.048923333333     0.145093333333     0          
T        Si     0.848745000000     0.095510000000     0.073320000000     0          
T        Si     0.802895000000     0.173696666667     0.026730000000     0          
T        Si     0.753565000000     0.164143333333     0.055246666667     0          
T        Si     0.771125000000     0.081936666667     0.111126666667     0          
T        Si     0.754780000000     0.036250000000     0.055633333333     0          
T        Si     0.803930000000     0.044543333333     0.030416666667     0          
T        Si     0.762070000000     0.037730000000     0.175606666667     0          
T        Si     0.771805000000     0.287116666667     0.115296666667     0          
T        Si     0.756610000000     0.243850000000     0.058040000000     0          
T        Si     0.805065000000     0.252363333333     0.032090000000     0          
T        Si     0.850985000000     0.299450000000     0.075510000000     0          
T        Si     0.844805000000     0.296980000000     0.145703333333     0          
T        Si     0.917235000000     0.252300000000     0.220436666667     0          
T        Si     0.950135000000     0.170276666667     0.277496666667     0          
T        Si     0.963425000000     0.285136666667     0.195150000000     0          
T        Si     0.923565000000     0.314216666667     0.102493333333     0          
T        Si     0.965460000000     0.300520000000     0.071533333333     0          
T        Si     0.977045000000     0.252646666667     0.031713333333     0          
O        O      0.963685000000     0.214310000000     0.026083333333     0          
O        O      0.963750000000     0.141703333333     0.053426666667     0          
O        O      0.999710000000     0.075240000000     0.109300000000     0          
O        O      0.956960000000     0.080130000000     0.034746666667     0          
O        O      0.959480000000     0.008450000000     0.040726666667     0          
O        O      0.934480000000     0.091363333333     0.075606666667     0          
O        O      0.914480000000     0.026653333333     0.085786666667     0          
O        O      0.887445000000     0.084770000000     0.089020000000     0          
O        O      0.950305000000     0.049366666667     0.146693333333     0          
O        O      0.997830000000     0.043143333333     0.220470000000     0          
O        O      0.933935000000     0.054270000000     0.194790000000     0          
O        O      0.919975000000     0.080140000000     0.236396666667     0          
O        O      0.957490000000     0.059430000000     0.314716666667     0          
O        O      0.982405000000     0.089546666667     0.273593333333     0          
O        O      0.937360000000     0.132176666667     0.270076666667     0          
O        O      0.933620000000     0.006756666667     0.253696666667     0          
O        O      0.964080000000     0.283913333333     0.322210000000     0          
O        O      0.988130000000     0.294160000000     0.278480000000     0          
O        O      0.931645000000     0.269616666667     0.255436666667     0          
O        O      0.876605000000     0.047583333333     0.187730000000     0          
O        O      0.844835000000     0.007576666667     0.141543333333     0          
O        O      0.810615000000     0.062646666667     0.140690000000     0          
O        O      0.845495000000     0.079340000000     0.110283333333     0          
O        O      0.825025000000     0.077520000000     0.040006666667     0          
O        O      0.836595000000     0.141106666667     0.054103333333     0          
O        O      0.812880000000     0.214710000000     0.025433333333     0          
O        O      0.781500000000     0.166086666667     0.045670000000     0          
O        O      0.747560000000     0.202196666667     0.062493333333     0          
O        O      0.718835000000     0.160476666667     0.017903333333     0          
O        O      0.766270000000     0.127543333333     0.094650000000     0          
O        O      0.753445000000     0.067343333333     0.073973333333     0          
O        O      0.722070000000     0.048306666667     0.010290000000     0          
O        O      0.788260000000     0.034230000000     0.056163333333     0          
O        O      0.829105000000     0.007416666667     0.042350000000     0          
O        O      0.754275000000     0.069640000000     0.135413333333     0          
O        O      0.801970000000     0.027843333333     0.209700000000     0          
O        O      0.757610000000     0.279710000000     0.142586666667     0          
O        O      0.811770000000     0.285080000000     0.142913333333     0          
O        O      0.754020000000     0.328790000000     0.081170000000     0          
O        O      0.763845000000     0.255396666667     0.094840000000     0          
O        O      0.725955000000     0.274633333333     0.016503333333     0          
O        O      0.790175000000     0.242666666667     0.058673333333     0          
O        O      0.839200000000     0.267803333333     0.054903333333     0          
O        O      0.890440000000     0.297893333333     0.094480000000     0          
O        O      0.844960000000     0.290256666667     0.110346666667     0          
O        O      0.877630000000     0.270206666667     0.188130000000     0          
O        O      0.922820000000     0.206806666667     0.239576666667     0          
O        O      0.985815000000     0.170810000000     0.283130000000     0          
O        O      0.954300000000     0.171713333333     0.317076666667     0          
O        O      0.936725000000     0.262260000000     0.199156666667     0          
O        O      0.964225000000     0.321960000000     0.207216666667     0          
O        O      0.952505000000     0.298710000000     0.149770000000     0          
O        O      0.936905000000     0.300246666667     0.080063333333     0          
O        O      0.962685000000     0.268966666667     0.052010000000     0          
T        Si     0.525895000000     0.160780000000     0.638370000000     0          
T        Si     0.536290000000     0.236330000000     0.598423333333     0          
T        Si     0.528665000000     0.286476666667     0.638913333333     0          
T        Si     0.578350000000     0.270243333333     0.567273333333     0          
T        Si     0.538450000000     0.299366666667     0.474426666667     0          
T        Si     0.584140000000     0.285913333333     0.448830000000     0          
T        Si     0.550765000000     0.243046666667     0.392880000000     0          
T        Si     0.545580000000     0.036466666667     0.389266666667     0          
T        Si     0.655540000000     0.284410000000     0.521573333333     0          
T        Si     0.651255000000     0.237823333333     0.593346666667     0          
T        Si     0.697105000000     0.159636666667     0.639936666667     0          
T        Si     0.746435000000     0.169190000000     0.611420000000     0          
T        Si     0.728875000000     0.251396666667     0.555540000000     0          
T        Si     0.745220000000     0.297083333333     0.611033333333     0          
T        Si     0.696070000000     0.288790000000     0.636250000000     0          
T        Si     0.737930000000     0.295603333333     0.491060000000     0          
T        Si     0.728195000000     0.046216666667     0.551370000000     0          
T        Si     0.743390000000     0.089483333333     0.608626666667     0          
T        Si     0.694935000000     0.080970000000     0.634576666667     0          
T        Si     0.649015000000     0.033883333333     0.591156666667     0          
T        Si     0.655195000000     0.036353333333     0.520963333333     0          
T        Si     0.582765000000     0.081033333333     0.446230000000     0          
T        Si     0.549865000000     0.163056666667     0.389170000000     0          
T        Si     0.536575000000     0.048196666667     0.471516666667     0          
T        Si     0.576435000000     0.019116666667     0.564173333333     0          
T        Si     0.534540000000     0.032813333333     0.595133333333     0          
T        Si     0.522955000000     0.080686666667     0.634953333333     0          
O        O      0.536315000000     0.119023333333     0.640583333333     0          
O        O      0.536250000000     0.191630000000     0.613240000000     0          
O        O      0.500290000000     0.258093333333     0.557366666667     0          
O        O      0.543040000000     0.253203333333     0.631920000000     0          
O        O      0.540520000000     0.324883333333     0.625940000000     0          
O        O      0.565520000000     0.241970000000     0.591060000000     0          
O        O      0.585520000000     0.306680000000     0.580880000000     0          
O        O      0.612555000000     0.248563333333     0.577646666667     0          
O        O      0.549695000000     0.283966666667     0.519973333333     0          
O        O      0.502170000000     0.290190000000     0.446196666667     0          
O        O      0.566065000000     0.279063333333     0.471876666667     0          
O        O      0.580025000000     0.253193333333     0.430270000000     0          
O        O      0.542510000000     0.273903333333     0.351950000000     0          
O        O      0.517595000000     0.243786666667     0.393073333333     0          
O        O      0.562640000000     0.201156666667     0.396590000000     0          
O        O      0.566380000000     0.326576666667     0.412970000000     0          
O        O      0.535920000000     0.049420000000     0.344456666667     0          
O        O      0.511870000000     0.039173333333     0.388186666667     0          
O        O      0.568355000000     0.063716666667     0.411230000000     0          
O        O      0.623395000000     0.285750000000     0.478936666667     0          
O        O      0.655165000000     0.325756666667     0.525123333333     0          
O        O      0.689385000000     0.270686666667     0.525976666667     0          
O        O      0.654505000000     0.253993333333     0.556383333333     0          
O        O      0.674975000000     0.255813333333     0.626660000000     0          
O        O      0.663405000000     0.192226666667     0.612563333333     0          
O        O      0.687120000000     0.118623333333     0.641233333333     0          
O        O      0.718500000000     0.167246666667     0.620996666667     0          
O        O      0.752440000000     0.131136666667     0.604173333333     0          
O        O      0.781165000000     0.172856666667     0.648763333333     0          
O        O      0.733730000000     0.205790000000     0.572016666667     0          
O        O      0.746555000000     0.265990000000     0.592693333333     0          
O        O      0.777930000000     0.285026666667     0.656376666667     0          
O        O      0.711740000000     0.299103333333     0.610503333333     0          
O        O      0.670895000000     0.325916666667     0.624316666667     0          
O        O      0.745725000000     0.263693333333     0.531253333333     0          
O        O      0.698030000000     0.305490000000     0.456966666667     0          
O        O      0.750000000000     0.000000000000     0.500000000000     0          
O        O      0.742390000000     0.053623333333     0.524080000000     0          
O        O      0.688230000000     0.048253333333     0.523753333333     0          
O        O      0.745980000000     0.004543333333     0.585496666667     0          
O        O      0.736155000000     0.077936666667     0.571826666667     0          
O        O      0.774045000000     0.058700000000     0.650163333333     0          
O        O      0.709825000000     0.090666666667     0.607993333333     0          
O        O      0.660800000000     0.065530000000     0.611763333333     0          
O        O      0.609560000000     0.035440000000     0.572186666667     0          
O        O      0.655040000000     0.043076666667     0.556320000000     0          
O        O      0.622370000000     0.063126666667     0.478536666667     0          
O        O      0.577180000000     0.126526666667     0.427090000000     0          
O        O      0.514185000000     0.162523333333     0.383536666667     0          
O        O      0.545700000000     0.161620000000     0.349590000000     0          
O        O      0.563275000000     0.071073333333     0.467510000000     0          
O        O      0.535775000000     0.011373333333     0.459450000000     0          
O        O      0.547495000000     0.034623333333     0.516896666667     0          
O        O      0.563095000000     0.033086666667     0.586603333333     0          
O        O      0.537315000000     0.064366666667     0.614656666667     0          
T        Si     0.974105000000     0.172553333333     0.361630000000     0          
T        Si     0.963710000000     0.097003333333     0.401576666667     0          
T        Si     0.971335000000     0.046856666667     0.361086666667     0          
T        Si     0.921650000000     0.063090000000     0.432726666667     0          
T        Si     0.961550000000     0.033966666667     0.525573333333     0          
T        Si     0.915860000000     0.047420000000     0.551170000000     0          
T        Si     0.949235000000     0.090286666667     0.607120000000     0          
T        Si     0.954420000000     0.296866666667     0.610733333333     0          
T        Si     0.844460000000     0.048923333333     0.478426666667     0          
T        Si     0.848745000000     0.095510000000     0.406653333333     0          
T        Si     0.802895000000     0.173696666667     0.360063333333     0          
T        Si     0.753565000000     0.164143333333     0.388580000000     0          
T        Si     0.771125000000     0.081936666667     0.444460000000     0          
T        Si     0.754780000000     0.036250000000     0.388966666667     0          
T        Si     0.803930000000     0.044543333333     0.363750000000     0          
T        Si     0.762070000000     0.037730000000     0.508940000000     0          
T        Si     0.771805000000     0.287116666667     0.448630000000     0          
T        Si     0.756610000000     0.243850000000     0.391373333333     0          
T        Si     0.805065000000     0.252363333333     0.365423333333     0          
T        Si     0.850985000000     0.299450000000     0.408843333333     0          
T        Si     0.844805000000     0.296980000000     0.479036666667     0          
T        Si     0.917235000000     0.252300000000     0.553770000000     0          
T        Si     0.950135000000     0.170276666667     0.610830000000     0          
T        Si     0.963425000000     0.285136666667     0.528483333333     0          
T        Si     0.923565000000     0.314216666667     0.435826666667     0          
T        Si     0.965460000000     0.300520000000     0.404866666667     0          
T        Si     0.977045000000     0.252646666667     0.365046666667     0          
O        O      0.963685000000     0.214310000000     0.359416666667     0          
O        O      0.963750000000     0.141703333333     0.386760000000     0          
O        O      0.999710000000     0.075240000000     0.442633333333     0          
O        O      0.956960000000     0.080130000000     0.368080000000     0          
O        O      0.959480000000     0.008450000000     0.374060000000     0          
O        O      0.934480000000     0.091363333333     0.408940000000     0          
O        O      0.914480000000     0.026653333333     0.419120000000     0          
O        O      0.887445000000     0.084770000000     0.422353333333     0          
O        O      0.950305000000     0.049366666667     0.480026666667     0          
O        O      0.997830000000     0.043143333333     0.553803333333     0          
O        O      0.933935000000     0.054270000000     0.528123333333     0          
O        O      0.919975000000     0.080140000000     0.569730000000     0          
O        O      0.957490000000     0.059430000000     0.648050000000     0          
O        O      0.982405000000     0.089546666667     0.606926666667     0          
O        O      0.937360000000     0.132176666667     0.603410000000     0          
O        O      0.933620000000     0.006756666667     0.587030000000     0          
O        O      0.964080000000     0.283913333333     0.655543333333     0          
O        O      0.988130000000     0.294160000000     0.611813333333     0          
O        O      0.931645000000     0.269616666667     0.588770000000     0          
O        O      0.876605000000     0.047583333333     0.521063333333     0          
O        O      0.844835000000     0.007576666667     0.474876666667     0          
O        O      0.810615000000     0.062646666667     0.474023333333     0          
O        O      0.845495000000     0.079340000000     0.443616666667     0          
O        O      0.825025000000     0.077520000000     0.373340000000     0          
O        O      0.836595000000     0.141106666667     0.387436666667     0          
O        O      0.812880000000     0.214710000000     0.358766666667     0          
O        O      0.781500000000     0.166086666667     0.379003333333     0          
O        O      0.747560000000     0.202196666667     0.395826666667     0          
O        O      0.718835000000     0.160476666667     0.351236666667     0          
O        O      0.766270000000     0.127543333333     0.427983333333     0          
O        O      0.753445000000     0.067343333333     0.407306666667     0          
O        O      0.722070000000     0.048306666667     0.343623333333     0          
O        O      0.788260000000     0.034230000000     0.389496666667     0          
O        O      0.829105000000     0.007416666667     0.375683333333     0          
O        O      0.754275000000     0.069640000000     0.468746666667     0          
O        O      0.801970000000     0.027843333333     0.543033333333     0          
O        O      0.757610000000     0.279710000000     0.475920000000     0          
O        O      0.811770000000     0.285080000000     0.476246666667     0          
O        O      0.754020000000     0.328790000000     0.414503333333     0          
O        O      0.763845000000     0.255396666667     0.428173333333     0          
O        O      0.725955000000     0.274633333333     0.349836666667     0          
O        O      0.790175000000     0.242666666667     0.392006666667     0          
O        O      0.839200000000     0.267803333333     0.388236666667     0          
O        O      0.890440000000     0.297893333333     0.427813333333     0          
O        O      0.844960000000     0.290256666667     0.443680000000     0          
O        O      0.877630000000     0.270206666667     0.521463333333     0          
O        O      0.922820000000     0.206806666667     0.572910000000     0          
O        O      0.985815000000     0.170810000000     0.616463333333     0          
O        O      0.954300000000     0.171713333333     0.650410000000     0          
O        O      0.936725000000     0.262260000000     0.532490000000     0          
O        O      0.964225000000     0.321960000000     0.540550000000     0          
O        O      0.952505000000     0.298710000000     0.483103333333     0          
O        O      0.936905000000     0.300246666667     0.413396666667     0          
O        O      0.962685000000     0.268966666667     0.385343333333     0          
T        Si     0.525895000000     0.160780000000     0.971703333333     0          
T        Si     0.536290000000     0.236330000000     0.931756666667     0          
T        Si     0.528665000000     0.286476666667     0.972246666667     0          
T        Si     0.578350000000     0.270243333333     0.900606666667     0          
T        Si     0.538450000000     0.299366666667     0.807760000000     0          
T        Si     0.584140000000     0.285913333333     0.782163333333     0          
T        Si     0.550765000000     0.243046666667     0.726213333333     0          
T        Si     0.545580000000     0.036466666667     0.722600000000     0          
T        Si     0.655540000000     0.284410000000     0.854906666667     0          
T        Si     0.651255000000     0.237823333333     0.926680000000     0          
T        Si     0.697105000000     0.159636666667     0.973270000000     0          
T        Si     0.746435000000     0.169190000000     0.944753333333     0          
T        Si     0.728875000000     0.251396666667     0.888873333333     0          
T        Si     0.745220000000     0.297083333333     0.944366666667     0          
T        Si     0.696070000000     0.288790000000     0.969583333333     0          
T        Si     0.737930000000     0.295603333333     0.824393333333     0          
T        Si     0.728195000000     0.046216666667     0.884703333333     0          
T        Si     0.743390000000     0.089483333333     0.941960000000     0          
T        Si     0.694935000000     0.080970000000     0.967910000000     0          
T        Si     0.649015000000     0.033883333333     0.924490000000     0          
T        Si     0.655195000000     0.036353333333     0.854296666667     0          
T        Si     0.582765000000     0.081033333333     0.779563333333     0          
T        Si     0.549865000000     0.163056666667     0.722503333333     0          
T        Si     0.536575000000     0.048196666667     0.804850000000     0          
T        Si     0.576435000000     0.019116666667     0.897506666667     0          
T        Si     0.534540000000     0.032813333333     0.928466666667     0          
T        Si     0.522955000000     0.080686666667     0.968286666667     0          
O        O      0.536315000000     0.119023333333     0.973916666667     0          
O        O      0.536250000000     0.191630000000     0.946573333333     0          
O        O      0.500290000000     0.258093333333     0.890700000000     0          
O        O      0.543040000000     0.253203333333     0.965253333333     0          
O        O      0.540520000000     0.324883333333     0.959273333333     0          
O        O      0.565520000000     0.241970000000     0.924393333333     0          
O        O      0.585520000000     0.306680000000     0.914213333333     0          
O        O      0.612555000000     0.248563333333     0.910980000000     0          
O        O      0.549695000000     0.283966666667     0.853306666667     0          
O        O      0.502170000000     0.290190000000     0.779530000000     0          
O        O      0.566065000000     0.279063333333     0.805210000000     0          
O        O      0.580025000000     0.253193333333     0.763603333333     0          
O        O      0.542510000000     0.273903333333     0.685283333333     0          
O        O      0.517595000000     0.243786666667     0.726406666667     0          
O        O      0.562640000000     0.201156666667     0.729923333333     0          
O        O      0.566380000000     0.326576666667     0.746303333333     0          
O        O      0.535920000000     0.049420000000     0.677790000000     0          
O        O      0.511870000000     0.039173333333     0.721520000000     0          
O        O      0.568355000000     0.063716666667     0.744563333333     0          
O        O      0.623395000000     0.285750000000     0.812270000000     0          
O        O      0.655165000000     0.325756666667     0.858456666667     0          
O        O      0.689385000000     0.270686666667     0.859310000000     0          
O        O      0.654505000000     0.253993333333     0.889716666667     0          
O        O      0.674975000000     0.255813333333     0.959993333333     0          
O        O      0.663405000000     0.192226666667     0.945896666667     0          
O        O      0.687120000000     0.118623333333     0.974566666667     0          
O        O      0.718500000000     0.167246666667     0.954330000000     0          
O        O      0.752440000000     0.131136666667     0.937506666667     0          
O        O      0.781165000000     0.172856666667     0.982096666667     0          
O        O      0.733730000000     0.205790000000     0.905350000000     0          
O        O      0.746555000000     0.265990000000     0.926026666667     0          
O        O      0.777930000000     0.285026666667     0.989710000000     0          
O        O      0.711740000000     0.299103333333     0.943836666667     0          
O        O      0.670895000000     0.325916666667     0.957650000000     0          
O        O      0.745725000000     0.263693333333     0.864586666667     0          
O        O      0.698030000000     0.305490000000     0.790300000000     0          
O        O      0.750000000000     0.000000000000     0.833333333333     0          
O        O      0.742390000000     0.053623333333     0.857413333333     0          
O        O      0.688230000000     0.048253333333     0.857086666667     0          
O        O      0.745980000000     0.004543333333     0.918830000000     0          
O        O      0.736155000000     0.077936666667     0.905160000000     0          
O        O      0.774045000000     0.058700000000     0.983496666667     0          
O        O      0.709825000000     0.090666666667     0.941326666667     0          
O        O      0.660800000000     0.065530000000     0.945096666667     0          
O        O      0.609560000000     0.035440000000     0.905520000000     0          
O        O      0.655040000000     0.043076666667     0.889653333333     0          
O        O      0.622370000000     0.063126666667     0.811870000000     0          
O        O      0.577180000000     0.126526666667     0.760423333333     0          
O        O      0.514185000000     0.162523333333     0.716870000000     0          
O        O      0.545700000000     0.161620000000     0.682923333333     0          
O        O      0.563275000000     0.071073333333     0.800843333333     0          
O        O      0.535775000000     0.011373333333     0.792783333333     0          
O        O      0.547495000000     0.034623333333     0.850230000000     0          
O        O      0.563095000000     0.033086666667     0.919936666667     0          
O        O      0.537315000000     0.064366666667     0.947990000000     0          
T        Si     0.974105000000     0.172553333333     0.694963333333     0          
T        Si     0.963710000000     0.097003333333     0.734910000000     0          
T        Si     0.971335000000     0.046856666667     0.694420000000     0          
T        Si     0.921650000000     0.063090000000     0.766060000000     0          
T        Si     0.961550000000     0.033966666667     0.858906666667     0          
T        Si     0.915860000000     0.047420000000     0.884503333333     0          
T        Si     0.949235000000     0.090286666667     0.940453333333     0          
T        Si     0.954420000000     0.296866666667     0.944066666667     0          
T        Si     0.844460000000     0.048923333333     0.811760000000     0          
T        Si     0.848745000000     0.095510000000     0.739986666667     0          
T        Si     0.802895000000     0.173696666667     0.693396666667     0          
T        Si     0.753565000000     0.164143333333     0.721913333333     0          
T        Si     0.771125000000     0.081936666667     0.777793333333     0          
T        Si     0.754780000000     0.036250000000     0.722300000000     0          
T        Si     0.803930000000     0.044543333333     0.697083333333     0          
T        Si     0.762070000000     0.037730000000     0.842273333333     0          
T        Si     0.771805000000     0.287116666667     0.781963333333     0          
T        Si     0.756610000000     0.243850000000     0.724706666667     0          
T        Si     0.805065000000     0.252363333333     0.698756666667     0          
T        Si     0.850985000000     0.299450000000     0.742176666667     0          
T        Si     0.844805000000     0.296980000000     0.812370000000     0          
T        Si     0.917235000000     0.252300000000     0.887103333333     0          
T        Si     0.950135000000     0.170276666667     0.944163333333     0          
T        Si     0.963425000000     0.285136666667     0.861816666667     0          
T        Si     0.923565000000     0.314216666667     0.769160000000     0          
T        Si     0.965460000000     0.300520000000     0.738200000000     0          
T        Si     0.977045000000     0.252646666667     0.698380000000     0          
O        O      0.963685000000     0.214310000000     0.692750000000     0          
O        O      0.963750000000     0.141703333333     0.720093333333     0          
O        O      0.999710000000     0.075240000000     0.775966666667     0          
O        O      0.956960000000     0.080130000000     0.701413333333     0          
O        O      0.959480000000     0.008450000000     0.707393333333     0          
O        O      0.934480000000     0.091363333333     0.742273333333     0          
O        O      0.914480000000     0.026653333333     0.752453333333     0          
O        O      0.887445000000     0.084770000000     0.755686666667     0          
O        O      0.950305000000     0.049366666667     0.813360000000     0          
O        O      0.997830000000     0.043143333333     0.887136666667     0          
O        O      0.933935000000     0.054270000000     0.861456666667     0          
O        O      0.919975000000     0.080140000000     0.903063333333     0          
O        O      0.957490000000     0.059430000000     0.981383333333     0          
O        O      0.982405000000     0.089546666667     0.940260000000     0          
O        O      0.937360000000     0.132176666667     0.936743333333     0          
O        O      0.933620000000     0.006756666667     0.920363333333     0          
O        O      0.964080000000     0.283913333333     0.988876666667     0          
O        O      0.988130000000     0.294160000000     0.945146666667     0          
O        O      0.931645000000     0.269616666667     0.922103333333     0          
O        O      0.876605000000     0.047583333333     0.854396666667     0          
O        O      0.844835000000     0.007576666667     0.808210000000     0          
O        O      0.810615000000     0.062646666667     0.807356666667     0          
O        O      0.845495000000     0.079340000000     0.776950000000     0          
O        O      0.825025000000     0.077520000000     0.706673333333     0          
O        O      0.836595000000     0.141106666667     0.720770000000     0          
O        O      0.812880000000     0.214710000000     0.692100000000     0          
O        O      0.781500000000     0.166086666667     0.712336666667     0          
O        O      0.747560000000     0.202196666667     0.729160000000     0          
O        O      0.718835000000     0.160476666667     0.684570000000     0          
O        O      0.766270000000     0.127543333333     0.761316666667     0          
O        O      0.753445000000     0.067343333333     0.740640000000     0          
O        O      0.722070000000     0.048306666667     0.676956666667     0          
O        O      0.788260000000     0.034230000000     0.722830000000     0          
O        O      0.829105000000     0.007416666667     0.709016666667     0          
O        O      0.754275000000     0.069640000000     0.802080000000     0          
O        O      0.801970000000     0.027843333333     0.876366666667     0          
O        O      0.757610000000     0.279710000000     0.809253333333     0          
O        O      0.811770000000     0.285080000000     0.809580000000     0          
O        O      0.754020000000     0.328790000000     0.747836666667     0          
O        O      0.763845000000     0.255396666667     0.761506666667     0          
O        O      0.725955000000     0.274633333333     0.683170000000     0          
O        O      0.790175000000     0.242666666667     0.725340000000     0          
O        O      0.839200000000     0.267803333333     0.721570000000     0          
O        O      0.890440000000     0.297893333333     0.761146666667     0          
O        O      0.844960000000     0.290256666667     0.777013333333     0          
O        O      0.877630000000     0.270206666667     0.854796666667     0          
O        O      0.922820000000     0.206806666667     0.906243333333     0          
O        O      0.985815000000     0.170810000000     0.949796666667     0          
O        O      0.954300000000     0.171713333333     0.983743333333     0          
O        O      0.936725000000     0.262260000000     0.865823333333     0          
O        O      0.964225000000     0.321960000000     0.873883333333     0          
O        O      0.952505000000     0.298710000000     0.816436666667     0          
O        O      0.936905000000     0.300246666667     0.746730000000     0          
O        O      0.962685000000     0.268966666667     0.718676666667     0          
T        Si     0.525895000000     0.494113333333     0.305036666667     0          
T        Si     0.536290000000     0.569663333333     0.265090000000     0          
T        Si     0.528665000000     0.619810000000     0.305580000000     0          
T        Si     0.578350000000     0.603576666667     0.233940000000     0          
T        Si     0.538450000000     0.632700000000     0.141093333333     0          
T        Si     0.584140000000     0.619246666667     0.115496666667     0          
T        Si     0.550765000000     0.576380000000     0.059546666667     0          
T        Si     0.545580000000     0.369800000000     0.055933333333     0          
T        Si     0.655540000000     0.617743333333     0.188240000000     0          
T        Si     0.651255000000     0.571156666667     0.260013333333     0          
T        Si     0.697105000000     0.492970000000     0.306603333333     0          
T        Si     0.746435000000     0.502523333333     0.278086666667     0          
T        Si     0.728875000000     0.584730000000     0.222206666667     0          
T        Si     0.745220000000     0.630416666667     0.277700000000     0          
T        Si     0.696070000000     0.622123333333     0.302916666667     0          
T        Si     0.737930000000     0.628936666667     0.157726666667     0          
T        Si     0.728195000000     0.379550000000     0.218036666667     0          
T        Si     0.743390000000     0.422816666667     0.275293333333     0          
T        Si     0.694935000000     0.414303333333     0.301243333333     0          
T        Si     0.649015000000     0.367216666667     0.257823333333     0          
T        Si     0.655195000000     0.369686666667     0.187630000000     0          
T        Si     0.582765000000     0.414366666667     0.112896666667     0          
T        Si     0.549865000000     0.496390000000     0.055836666667     0          
T        Si     0.536575000000     0.381530000000     0.138183333333     0          
T        Si     0.576435000000     0.352450000000     0.230840000000     0          
T        Si     0.534540000000     0.366146666667     0.261800000000     0          
T        Si     0.522955000000     0.414020000000     0.301620000000     0          
O        O      0.536315000000     0.452356666667     0.307250000000     0          
O        O      0.536250000000     0.524963333333     0.279906666667     0          
O        O      0.500290000000     0.591426666667     0.224033333333     0          
O        O      0.543040000000     0.586536666667     0.298586666667     0          
O        O      0.540520000000     0.658216666667     0.292606666667     0          
O        O      0.565520000000     0.575303333333     0.257726666667     0          
O        O      0.585520000000     0.640013333333     0.247546666667     0          
O        O      0.612555000000     0.581896666667     0.244313333333     0          
O        O      0.549695000000     0.617300000000     0.186640000000     0          
O        O      0.502170000000     0.623523333333     0.112863333333     0          
O        O      0.566065000000     0.612396666667     0.138543333333     0          
O        O      0.580025000000     0.586526666667     0.096936666667     0          
O        O      0.542510000000     0.607236666667     0.018616666667     0          
O        O      0.517595000000     0.577120000000     0.059740000000     0          
O        O      0.562640000000     0.534490000000     0.063256666667     0          
O        O      0.566380000000     0.659910000000     0.079636666667     0          
O        O      0.535920000000     0.382753333333     0.011123333333     0          
O        O      0.511870000000     0.372506666667     0.054853333333     0          
O        O      0.568355000000     0.397050000000     0.077896666667     0          
O        O      0.623395000000     0.619083333333     0.145603333333     0          
O        O      0.655165000000     0.659090000000     0.191790000000     0          
O        O      0.689385000000     0.604020000000     0.192643333333     0          
O        O      0.654505000000     0.587326666667     0.223050000000     0          
O        O      0.674975000000     0.589146666667     0.293326666667     0          
O        O      0.663405000000     0.525560000000     0.279230000000     0          
O        O      0.687120000000     0.451956666667     0.307900000000     0          
O        O      0.718500000000     0.500580000000     0.287663333333     0          
O        O      0.752440000000     0.464470000000     0.270840000000     0          
O        O      0.781165000000     0.506190000000     0.315430000000     0          
O        O      0.733730000000     0.539123333333     0.238683333333     0          
O        O      0.746555000000     0.599323333333     0.259360000000     0          
O        O      0.777930000000     0.618360000000     0.323043333333     0          
O        O      0.711740000000     0.632436666667     0.277170000000     0          
O        O      0.670895000000     0.659250000000     0.290983333333     0          
O        O      0.745725000000     0.597026666667     0.197920000000     0          
O        O      0.698030000000     0.638823333333     0.123633333333     0          
O        O      0.750000000000     0.333333333333     0.166666666667     0          
O        O      0.742390000000     0.386956666667     0.190746666667     0          
O        O      0.688230000000     0.381586666667     0.190420000000     0          
O        O      0.745980000000     0.337876666667     0.252163333333     0          
O        O      0.736155000000     0.411270000000     0.238493333333     0          
O        O      0.774045000000     0.392033333333     0.316830000000     0          
O        O      0.709825000000     0.424000000000     0.274660000000     0          
O        O      0.660800000000     0.398863333333     0.278430000000     0          
O        O      0.609560000000     0.368773333333     0.238853333333     0          
O        O      0.655040000000     0.376410000000     0.222986666667     0          
O        O      0.622370000000     0.396460000000     0.145203333333     0          
O        O      0.577180000000     0.459860000000     0.093756666667     0          
O        O      0.514185000000     0.495856666667     0.050203333333     0          
O        O      0.545700000000     0.494953333333     0.016256666667     0          
O        O      0.563275000000     0.404406666667     0.134176666667     0          
O        O      0.535775000000     0.344706666667     0.126116666667     0          
O        O      0.547495000000     0.367956666667     0.183563333333     0          
O        O      0.563095000000     0.366420000000     0.253270000000     0          
O        O      0.537315000000     0.397700000000     0.281323333333     0          
T        Si     0.974105000000     0.505886666667     0.028296666667     0          
T        Si     0.963710000000     0.430336666667     0.068243333333     0          
T        Si     0.971335000000     0.380190000000     0.027753333333     0          
T        Si     0.921650000000     0.396423333333     0.099393333333     0          
T        Si     0.961550000000     0.367300000000     0.192240000000     0          
T        Si     0.915860000000     0.380753333333     0.217836666667     0          
T        Si     0.949235000000     0.423620000000     0.273786666667     0          
T        Si     0.954420000000     0.630200000000     0.277400000000     0          
T        Si     0.844460000000     0.382256666667     0.145093333333     0          
T        Si     0.848745000000     0.428843333333     0.073320000000     0          
T        Si     0.802895000000     0.507030000000     0.026730000000     0          
T        Si     0.753565000000     0.497476666667     0.055246666667     0          
T        Si     0.771125000000     0.415270000000     0.111126666667     0          
T        Si     0.754780000000     0.369583333333     0.055633333333     0          
T        Si     0.803930000000     0.377876666667     0.030416666667     0          
T        Si     0.762070000000     0.371063333333     0.175606666667     0          
T        Si     0.771805000000     0.620450000000     0.115296666667     0          
T        Si     0.756610000000     0.577183333333     0.058040000000     0          
T        Si     0.805065000000     0.585696666667     0.032090000000     0          
T        Si     0.850985000000     0.632783333333     0.075510000000     0          
T        Si     0.844805000000     0.630313333333     0.145703333333     0          
T        Si     0.917235000000     0.585633333333     0.220436666667     0          
T        Si     0.950135000000     0.503610000000     0.277496666667     0          
T        Si     0.963425000000     0.618470000000     0.195150000000     0          
T        Si     0.923565000000     0.647550000000     0.102493333333     0          
T        Si     0.965460000000     0.633853333333     0.071533333333     0          
T        Si     0.977045000000     0.585980000000     0.031713333333     0          
O        O      0.963685000000     0.547643333333     0.026083333333     0          
O        O      0.963750000000     0.475036666667     0.053426666667     0          
O        O      0.999710000000     0.408573333333     0.109300000000     0          
O        O      0.956960000000     0.413463333333     0.034746666667     0          
O        O      0.959480000000     0.341783333333     0.040726666667     0          
O        O      0.934480000000     0.424696666667     0.075606666667     0          
O        O      0.914480000000     0.359986666667     0.085786666667     0          
O        O      0.887445000000     0.418103333333     0.089020000000     0          
O        O      0.950305000000     0.382700000000     0.146693333333     0          
O        O      0.997830000000     0.376476666667     0.220470000000     0          
O        O      0.933935000000     0.387603333333     0.194790000000     0          
O        O      0.919975000000     0.413473333333     0.236396666667     0          
O        O      0.957490000000     0.392763333333     0.314716666667     0          
O        O      0.982405000000     0.422880000000     0.273593333333     0          
O        O      0.937360000000     0.465510000000     0.270076666667     0          
O        O      0.933620000000     0.340090000000     0.253696666667     0          
O        O      0.964080000000     0.617246666667     0.322210000000     0          
O        O      0.988130000000     0.627493333333     0.278480000000     0          
O        O      0.931645000000     0.602950000000     0.255436666667     0          
O        O      0.876605000000     0.380916666667     0.187730000000     0          
O        O      0.844835000000     0.340910000000     0.141543333333     0          
O        O      0.810615000000     0.395980000000     0.140690000000     0          
O        O      0.845495000000     0.412673333333     0.110283333333     0          
O        O      0.825025000000     0.410853333333     0.040006666667     0          
O        O      0.836595000000     0.474440000000     0.054103333333     0          
O        O      0.812880000000     0.548043333333     0.025433333333     0          
O        O      0.781500000000     0.499420000000     0.045670000000     0          
O        O      0.747560000000     0.535530000000     0.062493333333     0          
O        O      0.718835000000     0.493810000000     0.017903333333     0          
O        O      0.766270000000     0.460876666667     0.094650000000     0          
O        O      0.753445000000     0.400676666667     0.073973333333     0          
O        O      0.722070000000     0.381640000000     0.010290000000     0          
O        O      0.788260000000     0.367563333333     0.056163333333     0          
O        O      0.829105000000     0.340750000000     0.042350000000     0          
O        O      0.754275000000     0.402973333333     0.135413333333     0          
O        O      0.801970000000     0.361176666667     0.209700000000     0          
O        O      0.757610000000     0.613043333333     0.142586666667     0          
O        O      0.811770000000     0.618413333333     0.142913333333     0          
O        O      0.754020000000     0.662123333333     0.081170000000     0          
O        O      0.763845000000     0.588730000000     0.094840000000     0          
O        O      0.725955000000     0.607966666667     0.016503333333     0          
O        O      0.790175000000     0.576000000000     0.058673333333     0          
O        O      0.839200000000     0.601136666667     0.054903333333     0          
O        O      0.890440000000     0.631226666667     0.094480000000     0          
O        O      0.844960000000     0.623590000000     0.110346666667     0          
O        O      0.877630000000     0.603540000000     0.188130000000     0          
O        O      0.922820000000     0.540140000000     0.239576666667     0          
O        O      0.985815000000     0.504143333333     0.283130000000     0          
O        O      0.954300000000     0.505046666667     0.317076666667     0          
O        O      0.936725000000     0.595593333333     0.199156666667     0          
O        O      0.964225000000     0.655293333333     0.207216666667     0          
O        O      0.952505000000     0.632043333333     0.149770000000     0          
O        O      0.936905000000     0.633580000000     0.080063333333     0          
O        O      0.962685000000     0.602300000000     0.052010000000     0          
T        Si     0.525895000000     0.494113333333     0.638370000000     0          
T        Si     0.536290000000     0.569663333333     0.598423333333     0          
T        Si     0.528665000000     0.619810000000     0.638913333333     0          
T        Si     0.578350000000     0.603576666667     0.567273333333     0          
T        Si     0.538450000000     0.632700000000     0.474426666667     0          
T        Si     0.584140000000     0.619246666667     0.448830000000     0          
T        Si     0.550765000000     0.576380000000     0.392880000000     0          
T        Si     0.545580000000     0.369800000000     0.389266666667     0          
T        Si     0.655540000000     0.617743333333     0.521573333333     0          
T        Si     0.651255000000     0.571156666667     0.593346666667     0          
T        Si     0.697105000000     0.492970000000     0.639936666667     0          
T        Si     0.746435000000     0.502523333333     0.611420000000     0          
T        Si     0.728875000000     0.584730000000     0.555540000000     0          
T        Si     0.745220000000     0.630416666667     0.611033333333     0          
T        Si     0.696070000000     0.622123333333     0.636250000000     0          
T        Si     0.737930000000     0.628936666667     0.491060000000     0          
T        Si     0.728195000000     0.379550000000     0.551370000000     0          
T        Si     0.743390000000     0.422816666667     0.608626666667     0          
T        Si     0.694935000000     0.414303333333     0.634576666667     0          
T        Si     0.649015000000     0.367216666667     0.591156666667     0          
T        Si     0.655195000000     0.369686666667     0.520963333333     0          
T        Si     0.582765000000     0.414366666667     0.446230000000     0          
T        Si     0.549865000000     0.496390000000     0.389170000000     0          
T        Si     0.536575000000     0.381530000000     0.471516666667     0          
T        Si     0.576435000000     0.352450000000     0.564173333333     0          
T        Si     0.534540000000     0.366146666667     0.595133333333     0          
T        Si     0.522955000000     0.414020000000     0.634953333333     0          
O        O      0.536315000000     0.452356666667     0.640583333333     0          
O        O      0.536250000000     0.524963333333     0.613240000000     0          
O        O      0.500290000000     0.591426666667     0.557366666667     0          
O        O      0.543040000000     0.586536666667     0.631920000000     0          
O        O      0.540520000000     0.658216666667     0.625940000000     0          
O        O      0.565520000000     0.575303333333     0.591060000000     0          
O        O      0.585520000000     0.640013333333     0.580880000000     0          
O        O      0.612555000000     0.581896666667     0.577646666667     0          
O        O      0.549695000000     0.617300000000     0.519973333333     0          
O        O      0.502170000000     0.623523333333     0.446196666667     0          
O        O      0.566065000000     0.612396666667     0.471876666667     0          
O        O      0.580025000000     0.586526666667     0.430270000000     0          
O        O      0.542510000000     0.607236666667     0.351950000000     0          
O        O      0.517595000000     0.577120000000     0.393073333333     0          
O        O      0.562640000000     0.534490000000     0.396590000000     0          
O        O      0.566380000000     0.659910000000     0.412970000000     0          
O        O      0.535920000000     0.382753333333     0.344456666667     0          
O        O      0.511870000000     0.372506666667     0.388186666667     0          
O        O      0.568355000000     0.397050000000     0.411230000000     0          
O        O      0.623395000000     0.619083333333     0.478936666667     0          
O        O      0.655165000000     0.659090000000     0.525123333333     0          
O        O      0.689385000000     0.604020000000     0.525976666667     0          
O        O      0.654505000000     0.587326666667     0.556383333333     0          
O        O      0.674975000000     0.589146666667     0.626660000000     0          
O        O      0.663405000000     0.525560000000     0.612563333333     0          
O        O      0.687120000000     0.451956666667     0.641233333333     0          
O        O      0.718500000000     0.500580000000     0.620996666667     0          
O        O      0.752440000000     0.464470000000     0.604173333333     0          
O        O      0.781165000000     0.506190000000     0.648763333333     0          
O        O      0.733730000000     0.539123333333     0.572016666667     0          
O        O      0.746555000000     0.599323333333     0.592693333333     0          
O        O      0.777930000000     0.618360000000     0.656376666667     0          
O        O      0.711740000000     0.632436666667     0.610503333333     0          
O        O      0.670895000000     0.659250000000     0.624316666667     0          
O        O      0.745725000000     0.597026666667     0.531253333333     0          
O        O      0.698030000000     0.638823333333     0.456966666667     0          
O        O      0.750000000000     0.333333333333     0.500000000000     0          
O        O      0.742390000000     0.386956666667     0.524080000000     0          
O        O      0.688230000000     0.381586666667     0.523753333333     0          
O        O      0.745980000000     0.337876666667     0.585496666667     0          
O        O      0.736155000000     0.411270000000     0.571826666667     0          
O        O      0.774045000000     0.392033333333     0.650163333333     0          
O        O      0.709825000000     0.424000000000     0.607993333333     0          
O        O      0.660800000000     0.398863333333     0.611763333333     0          
O        O      0.609560000000     0.368773333333     0.572186666667     0          
O        O      0.655040000000     0.376410000000     0.556320000000     0          
O        O      0.622370000000     0.396460000000     0.478536666667     0          
O        O      0.577180000000     0.459860000000     0.427090000000     0          
O        O      0.514185000000     0.495856666667     0.383536666667     0          
O        O      0.545700000000     0.494953333333     0.349590000000     0          
O        O      0.563275000000     0.404406666667     0.467510000000     0          
O        O      0.535775000000     0.344706666667     0.459450000000     0          
O        O      0.547495000000     0.367956666667     0.516896666667     0          
O        O      0.563095000000     0.366420000000     0.586603333333     0          
O        O      0.537315000000     0.397700000000     0.614656666667     0          
T        Si     0.974105000000     0.505886666667     0.361630000000     0          
T        Si     0.963710000000     0.430336666667     0.401576666667     0          
T        Si     0.971335000000     0.380190000000     0.361086666667     0          
T        Si     0.921650000000     0.396423333333     0.432726666667     0          
T        Si     0.961550000000     0.367300000000     0.525573333333     0          
T        Si     0.915860000000     0.380753333333     0.551170000000     0          
T        Si     0.949235000000     0.423620000000     0.607120000000     0          
T        Si     0.954420000000     0.630200000000     0.610733333333     0          
T        Si     0.844460000000     0.382256666667     0.478426666667     0          
T        Si     0.848745000000     0.428843333333     0.406653333333     0          
T        Si     0.802895000000     0.507030000000     0.360063333333     0          
T        Si     0.753565000000     0.497476666667     0.388580000000     0          
T        Si     0.771125000000     0.415270000000     0.444460000000     0          
T        Si     0.754780000000     0.369583333333     0.388966666667     0          
T        Si     0.803930000000     0.377876666667     0.363750000000     0          
T        Si     0.762070000000     0.371063333333     0.508940000000     0          
T        Si     0.771805000000     0.620450000000     0.448630000000     0          
T        Si     0.756610000000     0.577183333333     0.391373333333     0          
T        Si     0.805065000000     0.585696666667     0.365423333333     0          
T        Si     0.850985000000     0.632783333333     0.408843333333     0          
T        Si     0.844805000000     0.630313333333     0.479036666667     0          
T        Si     0.917235000000     0.585633333333     0.553770000000     0          
T        Si     0.950135000000     0.503610000000     0.610830000000     0          
T        Si     0.963425000000     0.618470000000     0.528483333333     0          
T        Si     0.923565000000     0.647550000000     0.435826666667     0          
T        Si     0.965460000000     0.633853333333     0.404866666667     0          
T        Si     0.977045000000     0.585980000000     0.365046666667     0          
O        O      0.963685000000     0.547643333333     0.359416666667     0          
O        O      0.963750000000     0.475036666667     0.386760000000     0          
O        O      0.999710000000     0.408573333333     0.442633333333     0          
O        O      0.956960000000     0.413463333333     0.368080000000     0          
O        O      0.959480000000     0.341783333333     0.374060000000     0          
O        O      0.934480000000     0.424696666667     0.408940000000     0          
O        O      0.914480000000     0.359986666667     0.419120000000     0          
O        O      0.887445000000     0.418103333333     0.422353333333     0          
O        O      0.950305000000     0.382700000000     0.480026666667     0          
O        O      0.997830000000     0.376476666667     0.553803333333     0          
O        O      0.933935000000     0.387603333333     0.528123333333     0          
O        O      0.919975000000     0.413473333333     0.569730000000     0          
O        O      0.957490000000     0.392763333333     0.648050000000     0          
O        O      0.982405000000     0.422880000000     0.606926666667     0          
O        O      0.937360000000     0.465510000000     0.603410000000     0          
O        O      0.933620000000     0.340090000000     0.587030000000     0          
O        O      0.964080000000     0.617246666667     0.655543333333     0          
O        O      0.988130000000     0.627493333333     0.611813333333     0          
O        O      0.931645000000     0.602950000000     0.588770000000     0          
O        O      0.876605000000     0.380916666667     0.521063333333     0          
O        O      0.844835000000     0.340910000000     0.474876666667     0          
O        O      0.810615000000     0.395980000000     0.474023333333     0          
O        O      0.845495000000     0.412673333333     0.443616666667     0          
O        O      0.825025000000     0.410853333333     0.373340000000     0          
O        O      0.836595000000     0.474440000000     0.387436666667     0          
O        O      0.812880000000     0.548043333333     0.358766666667     0          
O        O      0.781500000000     0.499420000000     0.379003333333     0          
O        O      0.747560000000     0.535530000000     0.395826666667     0          
O        O      0.718835000000     0.493810000000     0.351236666667     0          
O        O      0.766270000000     0.460876666667     0.427983333333     0          
O        O      0.753445000000     0.400676666667     0.407306666667     0          
O        O      0.722070000000     0.381640000000     0.343623333333     0          
O        O      0.788260000000     0.367563333333     0.389496666667     0          
O        O      0.829105000000     0.340750000000     0.375683333333     0          
O        O      0.754275000000     0.402973333333     0.468746666667     0          
O        O      0.801970000000     0.361176666667     0.543033333333     0          
O        O      0.757610000000     0.613043333333     0.475920000000     0          
O        O      0.811770000000     0.618413333333     0.476246666667     0          
O        O      0.754020000000     0.662123333333     0.414503333333     0          
O        O      0.763845000000     0.588730000000     0.428173333333     0          
O        O      0.725955000000     0.607966666667     0.349836666667     0          
O        O      0.790175000000     0.576000000000     0.392006666667     0          
O        O      0.839200000000     0.601136666667     0.388236666667     0          
O        O      0.890440000000     0.631226666667     0.427813333333     0          
O        O      0.844960000000     0.623590000000     0.443680000000     0          
O        O      0.877630000000     0.603540000000     0.521463333333     0          
O        O      0.922820000000     0.540140000000     0.572910000000     0          
O        O      0.985815000000     0.504143333333     0.616463333333     0          
O        O      0.954300000000     0.505046666667     0.650410000000     0          
O        O      0.936725000000     0.595593333333     0.532490000000     0          
O        O      0.964225000000     0.655293333333     0.540550000000     0          
O        O      0.952505000000     0.632043333333     0.483103333333     0          
O        O      0.936905000000     0.633580000000     0.413396666667     0          
O        O      0.962685000000     0.602300000000     0.385343333333     0          
T        Si     0.525895000000     0.494113333333     0.971703333333     0          
T        Si     0.536290000000     0.569663333333     0.931756666667     0          
T        Si     0.528665000000     0.619810000000     0.972246666667     0          
T        Si     0.578350000000     0.603576666667     0.900606666667     0          
T        Si     0.538450000000     0.632700000000     0.807760000000     0          
T        Si     0.584140000000     0.619246666667     0.782163333333     0          
T        Si     0.550765000000     0.576380000000     0.726213333333     0          
T        Si     0.545580000000     0.369800000000     0.722600000000     0          
T        Si     0.655540000000     0.617743333333     0.854906666667     0          
T        Si     0.651255000000     0.571156666667     0.926680000000     0          
T        Si     0.697105000000     0.492970000000     0.973270000000     0          
T        Si     0.746435000000     0.502523333333     0.944753333333     0          
T        Si     0.728875000000     0.584730000000     0.888873333333     0          
T        Si     0.745220000000     0.630416666667     0.944366666667     0          
T        Si     0.696070000000     0.622123333333     0.969583333333     0          
T        Si     0.737930000000     0.628936666667     0.824393333333     0          
T        Si     0.728195000000     0.379550000000     0.884703333333     0          
T        Si     0.743390000000     0.422816666667     0.941960000000     0          
T        Si     0.694935000000     0.414303333333     0.967910000000     0          
T        Si     0.649015000000     0.367216666667     0.924490000000     0          
T        Si     0.655195000000     0.369686666667     0.854296666667     0          
T        Si     0.582765000000     0.414366666667     0.779563333333     0          
T        Si     0.549865000000     0.496390000000     0.722503333333     0          
T        Si     0.536575000000     0.381530000000     0.804850000000     0          
T        Si     0.576435000000     0.352450000000     0.897506666667     0          
T        Si     0.534540000000     0.366146666667     0.928466666667     0          
T        Si     0.522955000000     0.414020000000     0.968286666667     0          
O        O      0.536315000000     0.452356666667     0.973916666667     0          
O        O      0.536250000000     0.524963333333     0.946573333333     0          
O        O      0.500290000000     0.591426666667     0.890700000000     0          
O        O      0.543040000000     0.586536666667     0.965253333333     0          
O        O      0.540520000000     0.658216666667     0.959273333333     0          
O        O      0.565520000000     0.575303333333     0.924393333333     0          
O        O      0.585520000000     0.640013333333     0.914213333333     0          
O        O      0.612555000000     0.581896666667     0.910980000000     0          
O        O      0.549695000000     0.617300000000     0.853306666667     0          
O        O      0.502170000000     0.623523333333     0.779530000000     0          
O        O      0.566065000000     0.612396666667     0.805210000000     0          
O        O      0.580025000000     0.586526666667     0.763603333333     0          
O        O      0.542510000000     0.607236666667     0.685283333333     0          
O        O      0.517595000000     0.577120000000     0.726406666667     0          
O        O      0.562640000000     0.534490000000     0.729923333333     0          
O        O      0.566380000000     0.659910000000     0.746303333333     0          
O        O      0.535920000000     0.382753333333     0.677790000000     0          
O        O      0.511870000000     0.372506666667     0.721520000000     0          
O        O      0.568355000000     0.397050000000     0.744563333333     0          
O        O      0.623395000000     0.619083333333     0.812270000000     0          
O        O      0.655165000000     0.659090000000     0.858456666667     0          
O        O      0.689385000000     0.604020000000     0.859310000000     0          
O        O      0.654505000000     0.587326666667     0.889716666667     0          
O        O      0.674975000000     0.589146666667     0.959993333333     0          
O        O      0.663405000000     0.525560000000     0.945896666667     0          
O        O      0.687120000000     0.451956666667     0.974566666667     0          
O        O      0.718500000000     0.500580000000     0.954330000000     0          
O        O      0.752440000000     0.464470000000     0.937506666667     0          
O        O      0.781165000000     0.506190000000     0.982096666667     0          
O        O      0.733730000000     0.539123333333     0.905350000000     0          
O        O      0.746555000000     0.599323333333     0.926026666667     0          
O        O      0.777930000000     0.618360000000     0.989710000000     0          
O        O      0.711740000000     0.632436666667     0.943836666667     0          
O        O      0.670895000000     0.659250000000     0.957650000000     0          
O        O      0.745725000000     0.597026666667     0.864586666667     0          
O        O      0.698030000000     0.638823333333     0.790300000000     0          
O        O      0.750000000000     0.333333333333     0.833333333333     0          
O        O      0.742390000000     0.386956666667     0.857413333333     0          
O        O      0.688230000000     0.381586666667     0.857086666667     0          
O        O      0.745980000000     0.337876666667     0.918830000000     0          
O        O      0.736155000000     0.411270000000     0.905160000000     0          
O        O      0.774045000000     0.392033333333     0.983496666667     0          
O        O      0.709825000000     0.424000000000     0.941326666667     0          
O        O      0.660800000000     0.398863333333     0.945096666667     0          
O        O      0.609560000000     0.368773333333     0.905520000000     0          
O        O      0.655040000000     0.376410000000     0.889653333333     0          
O        O      0.622370000000     0.396460000000     0.811870000000     0          
O        O      0.577180000000     0.459860000000     0.760423333333     0          
O        O      0.514185000000     0.495856666667     0.716870000000     0          
O        O      0.545700000000     0.494953333333     0.682923333333     0          
O        O      0.563275000000     0.404406666667     0.800843333333     0          
O        O      0.535775000000     0.344706666667     0.792783333333     0          
O        O      0.547495000000     0.367956666667     0.850230000000     0          
O        O      0.563095000000     0.366420000000     0.919936666667     0          
O        O      0.537315000000     0.397700000000     0.947990000000     0          
T        Si     0.974105000000     0.505886666667     0.694963333333     0          
T        Si     0.963710000000     0.430336666667     0.734910000000     0          
T        Si     0.971335000000     0.380190000000     0.694420000000     0          
T        Si     0.921650000000     0.396423333333     0.766060000000     0          
T        Si     0.961550000000     0.367300000000     0.858906666667     0          
T        Si     0.915860000000     0.380753333333     0.884503333333     0          
T        Si     0.949235000000     0.423620000000     0.940453333333     0          
T        Si     0.954420000000     0.630200000000     0.944066666667     0          
T        Si     0.844460000000     0.382256666667     0.811760000000     0          
T        Si     0.848745000000     0.428843333333     0.739986666667     0          
T        Si     0.802895000000     0.507030000000     0.693396666667     0          
T        Si     0.753565000000     0.497476666667     0.721913333333     0          
T        Si     0.771125000000     0.415270000000     0.777793333333     0          
T        Si     0.754780000000     0.369583333333     0.722300000000     0          
T        Si     0.803930000000     0.377876666667     0.697083333333     0          
T        Si     0.762070000000     0.371063333333     0.842273333333     0          
T        Si     0.771805000000     0.620450000000     0.781963333333     0          
T        Si     0.756610000000     0.577183333333     0.724706666667     0          
T        Si     0.805065000000     0.585696666667     0.698756666667     0          
T        Si     0.850985000000     0.632783333333     0.742176666667     0          
T        Si     0.844805000000     0.630313333333     0.812370000000     0          
T        Si     0.917235000000     0.585633333333     0.887103333333     0          
T        Si     0.950135000000     0.503610000000     0.944163333333     0          
T        Si     0.963425000000     0.618470000000     0.861816666667     0          
T        Si     0.923565000000     0.647550000000     0.769160000000     0          
T        Si     0.965460000000     0.633853333333     0.738200000000     0          
T        Si     0.977045000000     0.585980000000     0.698380000000     0          
O        O      0.963685000000     0.547643333333     0.692750000000     0          
O        O      0.963750000000     0.475036666667     0.720093333333     0          
O        O      0.999710000000     0.408573333333     0.775966666667     0          
O        O      0.956960000000     0.413463333333     0.701413333333     0          
O        O      0.959480000000     0.341783333333     0.707393333333     0          
O        O      0.934480000000     0.424696666667     0.742273333333     0          
O        O      0.914480000000     0.359986666667     0.752453333333     0          
O        O      0.887445000000     0.418103333333     0.755686666667     0          
O        O      0.950305000000     0.382700000000     0.813360000000     0          
O        O      0.997830000000     0.376476666667     0.887136666667     0          
O        O      0.933935000000     0.387603333333     0.861456666667     0          
O        O      0.919975000000     0.413473333333     0.903063333333     0          
O        O      0.957490000000     0.392763333333     0.981383333333     0          
O        O      0.982405000000     0.422880000000     0.940260000000     0          
O        O      0.937360000000     0.465510000000     0.936743333333     0          
O        O      0.933620000000     0.340090000000     0.920363333333     0          
O        O      0.964080000000     0.617246666667     0.988876666667     0          
O        O      0.988130000000     0.627493333333     0.945146666667     0          
O        O      0.931645000000     0.602950000000     0.922103333333     0          
O        O      0.876605000000     0.380916666667     0.854396666667     0          
O        O      0.844835000000     0.340910000000     0.808210000000     0          
O        O      0.810615000000     0.395980000000     0.807356666667     0          
O        O      0.845495000000     0.412673333333     0.776950000000     0          
O        O      0.825025000000     0.410853333333     0.706673333333     0          
O        O      0.836595000000     0.474440000000     0.720770000000     0          
O        O      0.812880000000     0.548043333333     0.692100000000     0          
O        O      0.781500000000     0.499420000000     0.712336666667     0          
O        O      0.747560000000     0.535530000000     0.729160000000     0          
O        O      0.718835000000     0.493810000000     0.684570000000     0          
O        O      0.766270000000     0.460876666667     0.761316666667     0          
O        O      0.753445000000     0.400676666667     0.740640000000     0          
O        O      0.722070000000     0.381640000000     0.676956666667     0          
O        O      0.788260000000     0.367563333333     0.722830000000     0          
O        O      0.829105000000     0.340750000000     0.709016666667     0          
O        O      0.754275000000     0.402973333333     0.802080000000     0          
O        O      0.801970000000     0.361176666667     0.876366666667     0          
O        O      0.757610000000     0.613043333333     0.809253333333     0          
O        O      0.811770000000     0.618413333333     0.809580000000     0          
O        O      0.754020000000     0.662123333333     0.747836666667     0          
O        O      0.763845000000     0.588730000000     0.761506666667     0          
O        O      0.725955000000     0.607966666667     0.683170000000     0          
O        O      0.790175000000     0.576000000000     0.725340000000     0          
O        O      0.839200000000     0.601136666667     0.721570000000     0          
O        O      0.890440000000     0.631226666667     0.761146666667     0          
O        O      0.844960000000     0.623590000000     0.777013333333     0          
O        O      0.877630000000     0.603540000000     0.854796666667     0          
O        O      0.922820000000     0.540140000000     0.906243333333     0          
O        O      0.985815000000     0.504143333333     0.949796666667     0          
O        O      0.954300000000     0.505046666667     0.983743333333     0          
O        O      0.936725000000     0.595593333333     0.865823333333     0          
O        O      0.964225000000     0.655293333333     0.873883333333     0          
O        O      0.952505000000     0.632043333333     0.816436666667     0          
O        O      0.936905000000     0.633580000000     0.746730000000     0          
O        O      0.962685000000     0.602300000000     0.718676666667     0          
T        Si     0.525895000000     0.827446666667     0.305036666667     0          
T        Si     0.536290000000     0.902996666667     0.265090000000     0          
T        Si     0.528665000000     0.953143333333     0.305580000000     0          
T        Si     0.578350000000     0.936910000000     0.233940000000     0          
T        Si     0.538450000000     0.966033333333     0.141093333333     0          
T        Si     0.584140000000     0.952580000000     0.115496666667     0          
T        Si     0.550765000000     0.909713333333     0.059546666667     0          
T        Si     0.545580000000     0.703133333333     0.055933333333     0          
T        Si     0.655540000000     0.951076666667     0.188240000000     0          
T        Si     0.651255000000     0.904490000000     0.260013333333     0          
T        Si     0.697105000000     0.826303333333     0.306603333333     0          
T        Si     0.746435000000     0.835856666667     0.278086666667     0          
T        Si     0.728875000000     0.918063333333     0.222206666667     0          
T        Si     0.745220000000     0.963750000000     0.277700000000     0          
T        Si     0.696070000000     0.955456666667     0.302916666667     0          
T        Si     0.737930000000     0.962270000000     0.157726666667     0          
T        Si     0.728195000000     0.712883333333     0.218036666667     0          
T        Si     0.743390000000     0.756150000000     0.275293333333     0          
T        Si     0.694935000000     0.747636666667     0.301243333333     0          
T        Si     0.649015000000     0.700550000000     0.257823333333     0          
T        Si     0.655195000000     0.703020000000     0.187630000000     0          
T        Si     0.582765000000     0.747700000000     0.112896666667     0          
T        Si     0.549865000000     0.829723333333     0.055836666667     0          
T        Si     0.536575000000     0.714863333333     0.138183333333     0          
T        Si     0.576435000000     0.685783333333     0.230840000000     0          
T        Si     0.534540000000     0.699480000000     0.261800000000     0          
T        Si     0.522955000000     0.747353333333     0.301620000000     0          
O        O      0.536315000000     0.785690000000     0.307250000000     0          
O        O      0.536250000000     0.858296666667     0.279906666667     0          
O        O      0.500290000000     0.924760000000     0.224033333333     0          
O        O      0.543040000000     0.919870000000     0.298586666667     0          
O        O      0.540520000000     0.991550000000     0.292606666667     0          
O        O      0.565520000000     0.908636666667     0.257726666667     0          
O        O      0.585520000000     0.973346666667     0.247546666667     0          
O        O      0.612555000000     0.915230000000     0.244313333333     0          
O        O      0.549695000000     0.950633333333     0.186640000000     0          
O        O      0.502170000000     0.956856666667     0.112863333333     0          
O        O      0.566065000000     0.945730000000     0.138543333333     0          
O        O      0.580025000000     0.919860000000     0.096936666667     0          
O        O      0.542510000000     0.940570000000     0.018616666667     0          
O        O      0.517595000000     0.910453333333     0.059740000000     0          
O        O      0.562640000000     0.867823333333     0.063256666667     0          
O        O      0.566380000000     0.993243333333     0.079636666667     0          
O        O      0.535920000000     0.716086666667     0.011123333333     0          
O        O      0.511870000000     0.705840000000     0.054853333333     0          
O        O      0.568355000000     0.730383333333     0.077896666667     0          
O        O      0.623395000000     0.952416666667     0.145603333333     0          
O        O      0.655165000000     0.992423333333     0.191790000000     0          
O        O      0.689385000000     0.937353333333     0.192643333333     0          
O        O      0.654505000000     0.920660000000     0.223050000000     0          
O        O      0.674975000000     0.922480000000     0.293326666667     0          
O        O      0.663405000000     0.858893333333     0.279230000000     0          
O        O      0.687120000000     0.785290000000     0.307900000000     0          
O        O      0.718500000000     0.833913333333     0.287663333333     0          
O        O      0.752440000000     0.797803333333     0.270840000000     0          
O        O      0.781165000000     0.839523333333     0.315430000000     0          
O        O      0.733730000000     0.872456666667     0.238683333333     0          
O        O      0.746555000000     0.932656666667     0.259360000000     0          
O        O      0.777930000000     0.951693333333     0.323043333333     0          
O        O      0.711740000000     0.965770000000     0.277170000000     0          
O        O      0.670895000000     0.992583333333     0.290983333333     0          
O        O      0.745725000000     0.930360000000     0.197920000000     0          
O        O      0.698030000000     0.972156666667     0.123633333333     0          
O        O      0.750000000000     0.666666666667     0.166666666667     0          
O        O      0.742390000000     0.720290000000     0.190746666667     0          
O        O      0.688230000000     0.714920000000     0.190420000000     0          
O        O      0.745980000000     0.671210000000     0.252163333333     0          
O        O      0.736155000000     0.744603333333     0.238493333333     0          
O        O      0.774045000000     0.725366666667     0.316830000000     0          
O        O      0.709825000000     0.757333333333     0.274660000000     0          
O        O      0.660800000000     0.732196666667     0.278430000000     0          
O        O      0.609560000000     0.702106666667     0.238853333333     0          
O        O      0.655040000000     0.709743333333     0.222986666667     0          
O        O      0.622370000000     0.729793333333     0.145203333333     0          
O        O      0.577180000000     0.793193333333     0.093756666667     0          
O        O      0.514185000000     0.829190000000     0.050203333333     0          
O        O      0.545700000000     0.828286666667     0.016256666667     0          
O        O      0.563275000000     0.737740000000     0.134176666667     0          
O        O      0.535775000000     0.678040000000     0.126116666667     0          
O        O      0.547495000000     0.701290000000     0.183563333333     0          
O        O      0.563095000000     0.699753333333     0.253270000000     0          
O        O      0.537315000000     0.731033333333     0.281323333333     0          
T        Si     0.974105000000     0.839220000000     0.028296666667     0          
T        Si     0.963710000000     0.763670000000     0.068243333333     0          
T        Si     0.971335000000     0.713523333333     0.027753333333     0          
T        Si     0.921650000000     0.729756666667     0.099393333333     0          
T        Si     0.961550000000     0.700633333333     0.192240000000     0          
T        Si     0.915860000000     0.714086666667     0.217836666667     0          
T        Si     0.949235000000     0.756953333333     0.273786666667     0          
T        Si     0.954420000000     0.963533333333     0.277400000000     0          
T        Si     0.844460000000     0.715590000000     0.145093333333     0          
T        Si     0.848745000000     0.762176666667     0.073320000000     0          
T        Si     0.802895000000     0.840363333333     0.026730000000     0          
T        Si     0.753565000000     0.830810000000     0.055246666667     0          
T        Si     0.771125000000     0.748603333333     0.111126666667     0          
T        Si     0.754780000000     0.702916666667     0.055633333333     0          
T        Si     0.803930000000     0.711210000000     0.030416666667     0          
T        Si     0.762070000000     0.704396666667     0.175606666667     0          
T        Si     0.771805000000     0.953783333333     0.115296666667     0          
T        Si     0.756610000000     0.910516666667     0.058040000000     0          
T        Si     0.805065000000     0.919030000000     0.032090000000     0          
T        Si     0.850985000000     0.966116666667     0.075510000000     0          
T        Si     0.844805000000     0.963646666667     0.145703333333     0          
T        Si     0.917235000000     0.918966666667     0.220436666667     0          
T        Si     0.950135000000     0.836943333333     0.277496666667     0          
T        Si     0.963425000000     0.951803333333     0.195150000000     0          
T        Si     0.923565000000     0.980883333333     0.102493333333     0          
T        Si     0.965460000000     0.967186666667     0.071533333333     0          
T        Si     0.977045000000     0.919313333333     0.031713333333     0          
O        O      0.963685000000     0.880976666667     0.026083333333     0          
O        O      0.963750000000     0.808370000000     0.053426666667     0          
O        O      0.999710000000     0.741906666667     0.109300000000     0          
O        O      0.956960000000     0.746796666667     0.034746666667     0          
O        O      0.959480000000     0.675116666667     0.040726666667     0          
O        O      0.934480000000     0.758030000000     0.075606666667     0          
O        O      0.914480000000     0.693320000000     0.085786666667     0          
O        O      0.887445000000     0.751436666667     0.089020000000     0          
O        O      0.950305000000     0.716033333333     0.146693333333     0          
O        O      0.997830000000     0.709810000000     0.220470000000     0          
O        O      0.933935000000     0.720936666667     0.194790000000     0          
O        O      0.919975000000     0.746806666667     0.236396666667     0          
O        O      0.957490000000     0.726096666667     0.314716666667     0          
O        O      0.982405000000     0.756213333333     0.273593333333     0          
O        O      0.937360000000     0.798843333333     0.270076666667     0          
O        O      0.933620000000     0.673423333333     0.253696666667     0          
O        O      0.964080000000     0.950580000000     0.322210000000     0          
O        O      0.988130000000     0.960826666667     0.278480000000     0          
O        O      0.931645000000     0.936283333333     0.255436666667     0          
O        O      0.876605000000     0.714250000000     0.187730000000     0          
O        O      0.844835000000     0.674243333333     0.141543333333     0          
O        O      0.810615000000     0.729313333333     0.140690000000     0          
O        O      0.845495000000     0.746006666667     0.110283333333     0          
O        O      0.825025000000     0.744186666667     0.040006666667     0          
O        O      0.836595000000     0.807773333333     0.054103333333     0          
O        O      0.812880000000     0.881376666667     0.025433333333     0          
O        O      0.781500000000     0.832753333333     0.045670000000     0          
O        O      0.747560000000     0.868863333333     0.062493333333     0          
O        O      0.718835000000     0.827143333333     0.017903333333     0          
O        O      0.766270000000     0.794210000000     0.094650000000     0          
O        O      0.753445000000     0.734010000000     0.073973333333     0          
O        O      0.722070000000     0.714973333333     0.010290000000     0          
O        O      0.788260000000     0.700896666667     0.056163333333     0          
O        O      0.829105000000     0.674083333333     0.042350000000     0          
O        O      0.754275000000     0.736306666667     0.135413333333     0          
O        O      0.801970000000     0.694510000000     0.209700000000     0          
O        O      0.757610000000     0.946376666667     0.142586666667     0          
O        O      0.811770000000     0.951746666667     0.142913333333     0          
O        O      0.754020000000     0.995456666667     0.081170000000     0          
O        O      0.763845000000     0.922063333333     0.094840000000     0          
O        O      0.725955000000     0.941300000000     0.016503333333     0          
O        O      0.790175000000     0.909333333333     0.058673333333     0          
O        O      0.839200000000     0.934470000000     0.054903333333     0          
O        O      0.890440000000     0.964560000000     0.094480000000     0          
O        O      0.844960000000     0.956923333333     0.110346666667     0          
O        O      0.877630000000     0.936873333333     0.188130000000     0          
O        O      0.922820000000     0.873473333333     0.239576666667     0          
O        O      0.985815000000     0.837476666667     0.283130000000     0          
O        O      0.954300000000     0.838380000000     0.317076666667     0          
O        O      0.936725000000     0.928926666667     0.199156666667     0          
O        O      0.964225000000     0.988626666667     0.207216666667     0          
O        O      0.952505000000     0.965376666667     0.149770000000     0          
O        O      0.936905000000     0.966913333333     0.080063333333     0          
O        O      0.962685000000     0.935633333333     0.052010000000     0          
T        Si     0.525895000000     0.827446666667     0.638370000000     0          
T        Si     0.536290000000     0.902996666667     0.598423333333     0          
T        Si     0.528665000000     0.953143333333     0.638913333333     0          
T        Si     0.578350000000     0.936910000000     0.567273333333     0          
T        Si     0.538450000000     0.966033333333     0.474426666667     0          
T        Si     0.584140000000     0.952580000000     0.448830000000     0          
T        Si     0.550765000000     0.909713333333     0.392880000000     0          
T        Si     0.545580000000     0.703133333333     0.389266666667     0          
T        Si     0.655540000000     0.951076666667     0.521573333333     0          
T        Si     0.651255000000     0.904490000000     0.593346666667     0          
T        Si     0.697105000000     0.826303333333     0.639936666667     0          
T        Si     0.746435000000     0.835856666667     0.611420000000     0          
T        Si     0.728875000000     0.918063333333     0.555540000000     0          
T        Si     0.745220000000     0.963750000000     0.611033333333     0          
T        Si     0.696070000000     0.955456666667     0.636250000000     0          
T        Si     0.737930000000     0.962270000000     0.491060000000     0          
T        Si     0.728195000000     0.712883333333     0.551370000000     0          
T        Si     0.743390000000     0.756150000000     0.608626666667     0          
T        Si     0.694935000000     0.747636666667     0.634576666667     0          
T        Si     0.649015000000     0.700550000000     0.591156666667     0          
T        Si     0.655195000000     0.703020000000     0.520963333333     0          
T        Si     0.582765000000     0.747700000000     0.446230000000     0          
T        Si     0.549865000000     0.829723333333     0.389170000000     0          
T        Si     0.536575000000     0.714863333333     0.471516666667     0          
T        Si     0.576435000000     0.685783333333     0.564173333333     0          
T        Si     0.534540000000     0.699480000000     0.595133333333     0          
T        Si     0.522955000000     0.747353333333     0.634953333333     0          
O        O      0.536315000000     0.785690000000     0.640583333333     0          
O        O      0.536250000000     0.858296666667     0.613240000000     0          
O        O      0.500290000000     0.924760000000     0.557366666667     0          
O        O      0.543040000000     0.919870000000     0.631920000000     0          
O        O      0.540520000000     0.991550000000     0.625940000000     0          
O        O      0.565520000000     0.908636666667     0.591060000000     0          
O        O      0.585520000000     0.973346666667     0.580880000000     0          
O        O      0.612555000000     0.915230000000     0.577646666667     0          
O        O      0.549695000000     0.950633333333     0.519973333333     0          
O        O      0.502170000000     0.956856666667     0.446196666667     0          
O        O      0.566065000000     0.945730000000     0.471876666667     0          
O        O      0.580025000000     0.919860000000     0.430270000000     0          
O        O      0.542510000000     0.940570000000     0.351950000000     0          
O        O      0.517595000000     0.910453333333     0.393073333333     0          
O        O      0.562640000000     0.867823333333     0.396590000000     0          
O        O      0.566380000000     0.993243333333     0.412970000000     0          
O        O      0.535920000000     0.716086666667     0.344456666667     0          
O        O      0.511870000000     0.705840000000     0.388186666667     0          
O        O      0.568355000000     0.730383333333     0.411230000000     0          
O        O      0.623395000000     0.952416666667     0.478936666667     0          
O        O      0.655165000000     0.992423333333     0.525123333333     0          
O        O      0.689385000000     0.937353333333     0.525976666667     0          
O        O      0.654505000000     0.920660000000     0.556383333333     0          
O        O      0.674975000000     0.922480000000     0.626660000000     0          
O        O      0.663405000000     0.858893333333     0.612563333333     0          
O        O      0.687120000000     0.785290000000     0.641233333333     0          
O        O      0.718500000000     0.833913333333     0.620996666667     0          
O        O      0.752440000000     0.797803333333     0.604173333333     0          
O        O      0.781165000000     0.839523333333     0.648763333333     0          
O        O      0.733730000000     0.872456666667     0.572016666667     0          
O        O      0.746555000000     0.932656666667     0.592693333333     0          
O        O      0.777930000000     0.951693333333     0.656376666667     0          
O        O      0.711740000000     0.965770000000     0.610503333333     0          
O        O      0.670895000000     0.992583333333     0.624316666667     0          
O        O      0.745725000000     0.930360000000     0.531253333333     0          
O        O      0.698030000000     0.972156666667     0.456966666667     0          
O        O      0.750000000000     0.666666666667     0.500000000000     0          
O        O      0.742390000000     0.720290000000     0.524080000000     0          
O        O      0.688230000000     0.714920000000     0.523753333333     0          
O        O      0.745980000000     0.671210000000     0.585496666667     0          
O        O      0.736155000000     0.744603333333     0.571826666667     0          
O        O      0.774045000000     0.725366666667     0.650163333333     0          
O        O      0.709825000000     0.757333333333     0.607993333333     0          
O        O      0.660800000000     0.732196666667     0.611763333333     0          
O        O      0.609560000000     0.702106666667     0.572186666667     0          
O        O      0.655040000000     0.709743333333     0.556320000000     0          
O        O      0.622370000000     0.729793333333     0.478536666667     0          
O        O      0.577180000000     0.793193333333     0.427090000000     0          
O        O      0.514185000000     0.829190000000     0.383536666667     0          
O        O      0.545700000000     0.828286666667     0.349590000000     0          
O        O      0.563275000000     0.737740000000     0.467510000000     0          
O        O      0.535775000000     0.678040000000     0.459450000000     0          
O        O      0.547495000000     0.701290000000     0.516896666667     0          
O        O      0.563095000000     0.699753333333     0.586603333333     0          
O        O      0.537315000000     0.731033333333     0.614656666667     0          
T        Si     0.974105000000     0.839220000000     0.361630000000     0          
T        Si     0.963710000000     0.763670000000     0.401576666667     0          
T        Si     0.971335000000     0.713523333333     0.361086666667     0          
T        Si     0.921650000000     0.729756666667     0.432726666667     0          
T        Si     0.961550000000     0.700633333333     0.525573333333     0          
T        Si     0.915860000000     0.714086666667     0.551170000000     0          
T        Si     0.949235000000     0.756953333333     0.607120000000     0          
T        Si     0.954420000000     0.963533333333     0.610733333333     0          
T        Si     0.844460000000     0.715590000000     0.478426666667     0          
T        Si     0.848745000000     0.762176666667     0.406653333333     0          
T        Si     0.802895000000     0.840363333333     0.360063333333     0          
T        Si     0.753565000000     0.830810000000     0.388580000000     0          
T        Si     0.771125000000     0.748603333333     0.444460000000     0          
T        Si     0.754780000000     0.702916666667     0.388966666667     0          
T        Si     0.803930000000     0.711210000000     0.363750000000     0          
T        Si     0.762070000000     0.704396666667     0.508940000000     0          
T        Si     0.771805000000     0.953783333333     0.448630000000     0          
T        Si     0.756610000000     0.910516666667     0.391373333333     0          
T        Si     0.805065000000     0.919030000000     0.365423333333     0          
T        Si     0.850985000000     0.966116666667     0.408843333333     0          
T        Si     0.844805000000     0.963646666667     0.479036666667     0          
T        Si     0.917235000000     0.918966666667     0.553770000000     0          
T        Si     0.950135000000     0.836943333333     0.610830000000     0          
T        Si     0.963425000000     0.951803333333     0.528483333333     0          
T        Si     0.923565000000     0.980883333333     0.435826666667     0          
T        Si     0.965460000000     0.967186666667     0.404866666667     0          
T        Si     0.977045000000     0.919313333333     0.365046666667     0          
O        O      0.963685000000     0.880976666667     0.359416666667     0          
O        O      0.963750000000     0.808370000000     0.386760000000     0          
O        O      0.999710000000     0.741906666667     0.442633333333     0          
O        O      0.956960000000     0.746796666667     0.368080000000     0          
O        O      0.959480000000     0.675116666667     0.374060000000     0          
O        O      0.934480000000     0.758030000000     0.408940000000     0          
O        O      0.914480000000     0.693320000000     0.419120000000     0          
O        O      0.887445000000     0.751436666667     0.422353333333     0          
O        O      0.950305000000     0.716033333333     0.480026666667     0          
O        O      0.997830000000     0.709810000000     0.553803333333     0          
O        O      0.933935000000     0.720936666667     0.528123333333     0          
O        O      0.919975000000     0.746806666667     0.569730000000     0          
O        O      0.957490000000     0.726096666667     0.648050000000     0          
O        O      0.982405000000     0.756213333333     0.606926666667     0          
O        O      0.937360000000     0.798843333333     0.603410000000     0          
O        O      0.933620000000     0.673423333333     0.587030000000     0          
O        O      0.964080000000     0.950580000000     0.655543333333     0          
O        O      0.988130000000     0.960826666667     0.611813333333     0          
O        O      0.931645000000     0.936283333333     0.588770000000     0          
O        O      0.876605000000     0.714250000000     0.521063333333     0          
O        O      0.844835000000     0.674243333333     0.474876666667     0          
O        O      0.810615000000     0.729313333333     0.474023333333     0          
O        O      0.845495000000     0.746006666667     0.443616666667     0          
O        O      0.825025000000     0.744186666667     0.373340000000     0          
O        O      0.836595000000     0.807773333333     0.387436666667     0          
O        O      0.812880000000     0.881376666667     0.358766666667     0          
O        O      0.781500000000     0.832753333333     0.379003333333     0          
O        O      0.747560000000     0.868863333333     0.395826666667     0          
O        O      0.718835000000     0.827143333333     0.351236666667     0          
O        O      0.766270000000     0.794210000000     0.427983333333     0          
O        O      0.753445000000     0.734010000000     0.407306666667     0          
O        O      0.722070000000     0.714973333333     0.343623333333     0          
O        O      0.788260000000     0.700896666667     0.389496666667     0          
O        O      0.829105000000     0.674083333333     0.375683333333     0          
O        O      0.754275000000     0.736306666667     0.468746666667     0          
O        O      0.801970000000     0.694510000000     0.543033333333     0          
O        O      0.757610000000     0.946376666667     0.475920000000     0          
O        O      0.811770000000     0.951746666667     0.476246666667     0          
O        O      0.754020000000     0.995456666667     0.414503333333     0          
O        O      0.763845000000     0.922063333333     0.428173333333     0          
O        O      0.725955000000     0.941300000000     0.349836666667     0          
O        O      0.790175000000     0.909333333333     0.392006666667     0          
O        O      0.839200000000     0.934470000000     0.388236666667     0          
O        O      0.890440000000     0.964560000000     0.427813333333     0          
O        O      0.844960000000     0.956923333333     0.443680000000     0          
O        O      0.877630000000     0.936873333333     0.521463333333     0          
O        O      0.922820000000     0.873473333333     0.572910000000     0          
O        O      0.985815000000     0.837476666667     0.616463333333     0          
O        O      0.954300000000     0.838380000000     0.650410000000     0          
O        O      0.936725000000     0.928926666667     0.532490000000     0          
O        O      0.964225000000     0.988626666667     0.540550000000     0          
O        O      0.952505000000     0.965376666667     0.483103333333     0          
O        O      0.936905000000     0.966913333333     0.413396666667     0          
O        O      0.962685000000     0.935633333333     0.385343333333     0          
T        Si     0.525895000000     0.827446666667     0.971703333333     0          
T        Si     0.536290000000     0.902996666667     0.931756666667     0          
T        Si     0.528665000000     0.953143333333     0.972246666667     0          
T        Si     0.578350000000     0.936910000000     0.900606666667     0          
T        Si     0.538450000000     0.966033333333     0.807760000000     0          
T        Si     0.584140000000     0.952580000000     0.782163333333     0          
T        Si     0.550765000000     0.909713333333     0.726213333333     0          
T        Si     0.545580000000     0.703133333333     0.722600000000     0          
T        Si     0.655540000000     0.951076666667     0.854906666667     0          
T        Si     0.651255000000     0.904490000000     0.926680000000     0          
T        Si     0.697105000000     0.826303333333     0.973270000000     0          
T        Si     0.746435000000     0.835856666667     0.944753333333     0          
T        Si     0.728875000000     0.918063333333     0.888873333333     0          
T        Si     0.745220000000     0.963750000000     0.944366666667     0          
T        Si     0.696070000000     0.955456666667     0.969583333333     0          
T        Si     0.737930000000     0.962270000000     0.824393333333     0          
T        Si     0.728195000000     0.712883333333     0.884703333333     0          
T        Si     0.743390000000     0.756150000000     0.941960000000     0          
T        Si     0.694935000000     0.747636666667     0.967910000000     0          
T        Si     0.649015000000     0.700550000000     0.924490000000     0          
T        Si     0.655195000000     0.703020000000     0.854296666667     0          
T        Si     0.582765000000     0.747700000000     0.779563333333     0          
T        Si     0.549865000000     0.829723333333     0.722503333333     0          
T        Si     0.536575000000     0.714863333333     0.804850000000     0          
T        Si     0.576435000000     0.685783333333     0.897506666667     0          
T        Si     0.534540000000     0.699480000000     0.928466666667     0          
T        Si     0.522955000000     0.747353333333     0.968286666667     0          
O        O      0.536315000000     0.785690000000     0.973916666667     0          
O        O      0.536250000000     0.858296666667     0.946573333333     0          
O        O      0.500290000000     0.924760000000     0.890700000000     0          
O        O      0.543040000000     0.919870000000     0.965253333333     0          
O        O      0.540520000000     0.991550000000     0.959273333333     0          
O        O      0.565520000000     0.908636666667     0.924393333333     0          
O        O      0.585520000000     0.973346666667     0.914213333333     0          
O        O      0.612555000000     0.915230000000     0.910980000000     0          
O        O      0.549695000000     0.950633333333     0.853306666667     0          
O        O      0.502170000000     0.956856666667     0.779530000000     0          
O        O      0.566065000000     0.945730000000     0.805210000000     0          
O        O      0.580025000000     0.919860000000     0.763603333333     0          
O        O      0.542510000000     0.940570000000     0.685283333333     0          
O        O      0.517595000000     0.910453333333     0.726406666667     0          
O        O      0.562640000000     0.867823333333     0.729923333333     0          
O        O      0.566380000000     0.993243333333     0.746303333333     0          
O        O      0.535920000000     0.716086666667     0.677790000000     0          
O        O      0.511870000000     0.705840000000     0.721520000000     0          
O        O      0.568355000000     0.730383333333     0.744563333333     0          
O        O      0.623395000000     0.952416666667     0.812270000000     0          
O        O      0.655165000000     0.992423333333     0.858456666667     0          
O        O      0.689385000000     0.937353333333     0.859310000000     0          
O        O      0.654505000000     0.920660000000     0.889716666667     0          
O        O      0.674975000000     0.922480000000     0.959993333333     0          
O        O      0.663405000000     0.858893333333     0.945896666667     0          
O        O      0.687120000000     0.785290000000     0.974566666667     0          
O        O      0.718500000000     0.833913333333     0.954330000000     0          
O        O      0.752440000000     0.797803333333     0.937506666667     0          
O        O      0.781165000000     0.839523333333     0.982096666667     0          
O        O      0.733730000000     0.872456666667     0.905350000000     0          
O        O      0.746555000000     0.932656666667     0.926026666667     0          
O        O      0.777930000000     0.951693333333     0.989710000000     0          
O        O      0.711740000000     0.965770000000     0.943836666667     0          
O        O      0.670895000000     0.992583333333     0.957650000000     0          
O        O      0.745725000000     0.930360000000     0.864586666667     0          
O        O      0.698030000000     0.972156666667     0.790300000000     0          
O        O      0.750000000000     0.666666666667     0.833333333333     0          
O        O      0.742390000000     0.720290000000     0.857413333333     0          
O        O      0.688230000000     0.714920000000     0.857086666667     0          
O        O      0.745980000000     0.671210000000     0.918830000000     0          
O        O      0.736155000000     0.744603333333     0.905160000000     0          
O        O      0.774045000000     0.725366666667     0.983496666667     0          
O        O      0.709825000000     0.757333333333     0.941326666667     0          
O        O      0.660800000000     0.732196666667     0.945096666667     0          
O        O      0.609560000000     0.702106666667     0.905520000000     0          
O        O      0.655040000000     0.709743333333     0.889653333333     0          
O        O      0.622370000000     0.729793333333     0.811870000000     0          
O        O      0.577180000000     0.793193333333     0.760423333333     0          
O        O      0.514185000000     0.829190000000     0.716870000000     0          
O        O      0.545700000000     0.828286666667     0.682923333333     0          
O        O      0.563275000000     0.737740000000     0.800843333333     0          
O        O      0.535775000000     0.678040000000     0.792783333333     0          
O        O      0.547495000000     0.701290000000     0.850230000000     0          
O        O      0.563095000000     0.699753333333     0.919936666667     0          
O        O      0.537315000000     0.731033333333     0.947990000000     0          
T        Si     0.974105000000     0.839220000000     0.694963333333     0          
T        Si     0.963710000000     0.763670000000     0.734910000000     0          
T        Si     0.971335000000     0.713523333333     0.694420000000     0          
T        Si     0.921650000000     0.729756666667     0.766060000000     0          
T        Si     0.961550000000     0.700633333333     0.858906666667     0          
T        Si     0.915860000000     0.714086666667     0.884503333333     0          
T        Si     0.949235000000     0.756953333333     0.940453333333     0          
T        Si     0.954420000000     0.963533333333     0.944066666667     0          
T        Si     0.844460000000     0.715590000000     0.811760000000     0          
T        Si     0.848745000000     0.762176666667     0.739986666667     0          
T        Si     0.802895000000     0.840363333333     0.693396666667     0          
T        Si     0.753565000000     0.830810000000     0.721913333333     0          
T        Si     0.771125000000     0.748603333333     0.777793333333     0          
T        Si     0.754780000000     0.702916666667     0.722300000000     0          
T        Si     0.803930000000     0.711210000000     0.697083333333     0          
T        Si     0.762070000000     0.704396666667     0.842273333333     0          
T        Si     0.771805000000     0.953783333333     0.781963333333     0          
T        Si     0.756610000000     0.910516666667     0.724706666667     0          
T        Si     0.805065000000     0.919030000000     0.698756666667     0          
T        Si     0.850985000000     0.966116666667     0.742176666667     0          
T        Si     0.844805000000     0.963646666667     0.812370000000     0          
T        Si     0.917235000000     0.918966666667     0.887103333333     0          
T        Si     0.950135000000     0.836943333333     0.944163333333     0          
T        Si     0.963425000000     0.951803333333     0.861816666667     0          
T        Si     0.923565000000     0.980883333333     0.769160000000     0          
T        Si     0.965460000000     0.967186666667     0.738200000000     0          
T        Si     0.977045000000     0.919313333333     0.698380000000     0          
O        O      0.963685000000     0.880976666667     0.692750000000     0          
O        O      0.963750000000     0.808370000000     0.720093333333     0          
O        O      0.999710000000     0.741906666667     0.775966666667     0          
O        O      0.956960000000     0.746796666667     0.701413333333     0          
O        O      0.959480000000     0.675116666667     0.707393333333     0          
O        O      0.934480000000     0.758030000000     0.742273333333     0          
O        O      0.914480000000     0.693320000000     0.752453333333     0          
O        O      0.887445000000     0.751436666667     0.755686666667     0          
O        O      0.950305000000     0.716033333333     0.813360000000     0          
O        O      0.997830000000     0.709810000000     0.887136666667     0          
O        O      0.933935000000     0.720936666667     0.861456666667     0          
O        O      0.919975000000     0.746806666667     0.903063333333     0          
O        O      0.957490000000     0.726096666667     0.981383333333     0          
O        O      0.982405000000     0.756213333333     0.940260000000     0          
O        O      0.937360000000     0.798843333333     0.936743333333     0          
O        O      0.933620000000     0.673423333333     0.920363333333     0          
O        O      0.964080000000     0.950580000000     0.988876666667     0          
O        O      0.988130000000     0.960826666667     0.945146666667     0          
O        O      0.931645000000     0.936283333333     0.922103333333     0          
O        O      0.876605000000     0.714250000000     0.854396666667     0          
O        O      0.844835000000     0.674243333333     0.808210000000     0          
O        O      0.810615000000     0.729313333333     0.807356666667     0          
O        O      0.845495000000     0.746006666667     0.776950000000     0          
O        O      0.825025000000     0.744186666667     0.706673333333     0          
O        O      0.836595000000     0.807773333333     0.720770000000     0          
O        O      0.812880000000     0.881376666667     0.692100000000     0          
O        O      0.781500000000     0.832753333333     0.712336666667     0          
O        O      0.747560000000     0.868863333333     0.729160000000     0          
O        O      0.718835000000     0.827143333333     0.684570000000     0          
O        O      0.766270000000     0.794210000000     0.761316666667     0          
O        O      0.753445000000     0.734010000000     0.740640000000     0          
O        O      0.722070000000     0.714973333333     0.676956666667     0          
O        O      0.788260000000     0.700896666667     0.722830000000     0          
O        O      0.829105000000     0.674083333333     0.709016666667     0          
O        O      0.754275000000     0.736306666667     0.802080000000     0          
O        O      0.801970000000     0.694510000000     0.876366666667     0          
O        O      0.757610000000     0.946376666667     0.809253333333     0          
O        O      0.811770000000     0.951746666667     0.809580000000     0          
O        O      0.754020000000     0.995456666667     0.747836666667     0          
O        O      0.763845000000     0.922063333333     0.761506666667     0          
O        O      0.725955000000     0.941300000000     0.683170000000     0          
O        O      0.790175000000     0.909333333333     0.725340000000     0          
O        O      0.839200000000     0.934470000000     0.721570000000     0          
O        O      0.890440000000     0.964560000000     0.761146666667     0          
O        O      0.844960000000     0.956923333333     0.777013333333     0          
O        O      0.877630000000     0.936873333333     0.854796666667     0          
O        O      0.922820000000     0.873473333333     0.906243333333     0          
O        O      0.985815000000     0.837476666667     0.949796666667     0          
O        O      0.954300000000     0.838380000000     0.983743333333     0          
O        O      0.936725000000     0.928926666667     0.865823333333     0          
O        O      0.964225000000     0.988626666667     0.873883333333     0          
O        O      0.952505000000     0.965376666667     0.816436666667     0          
O        O      0.936905000000     0.966913333333     0.746730000000     0          
O        O      0.962685000000     0.935633333333     0.718676666667     0          


