data_zeolite

_audit_creation_method RASPA-1.0
_audit_creation_date 2021-6-7
_audit_author_name ''

_cell_length_a    37.306
_cell_length_b    37.306
_cell_length_c    28.323
_cell_angle_alpha 90
_cell_angle_beta  90
_cell_angle_gamma 90
_cell_volume      39418.2

_symmetry_cell_setting          tetragonal
_symmetry_space_group_name_Hall 'P 1'
_symmetry_space_group_name_H-M  'P 1'
_symmetry_Int_Tables_number     1

_symmetry_equiv_pos_as_xyz 'x,y,z'

loop_
_atom_site_label
_atom_site_type_symbol
_atom_site_fract_x
_atom_site_fract_y
_atom_site_fract_z
_atom_site_charge
O        O      0.065700000000     0.315700000000     0.000000000000     0          
O        O      0.040150000000     0.375000000000     0.038600000000     0          
O        O      0.438900000000     0.438900000000     0.279200000000     0          
O        O      0.495450000000     0.421400000000     0.331433333333     0          
O        O      0.469300000000     0.375000000000     0.269000000000     0          
O        O      0.460200000000     0.210200000000     0.166666666667     0          
O        O      0.496700000000     0.183500000000     0.093733333333     0          
O        O      0.437550000000     0.222000000000     0.079266666667     0          
O        O      0.496200000000     0.253800000000     0.110000000000     0          
T        Si     0.032900000000     0.277200000000     0.112400000000     0          
T        Si     0.476750000000     0.332800000000     0.279833333333     0          
T        Si     0.032100000000     0.417200000000     0.028766666667     0          
O        O      0.434300000000     0.065700000000     0.000000000000     0          
O        O      0.375000000000     0.040150000000     0.038600000000     0          
O        O      0.311100000000     0.438900000000     0.279200000000     0          
O        O      0.328600000000     0.495450000000     0.331433333333     0          
O        O      0.375000000000     0.469300000000     0.269000000000     0          
O        O      0.039800000000     0.460200000000     0.166666666667     0          
O        O      0.066500000000     0.496700000000     0.093733333333     0          
O        O      0.028000000000     0.437550000000     0.079266666667     0          
O        O      0.496200000000     0.496200000000     0.110000000000     0          
T        Si     0.472800000000     0.032900000000     0.112400000000     0          
T        Si     0.417200000000     0.476750000000     0.279833333333     0          
T        Si     0.332800000000     0.032100000000     0.028766666667     0          
O        O      0.184300000000     0.434300000000     0.000000000000     0          
O        O      0.209850000000     0.375000000000     0.038600000000     0          
O        O      0.311100000000     0.311100000000     0.279200000000     0          
O        O      0.254550000000     0.328600000000     0.331433333333     0          
O        O      0.280700000000     0.375000000000     0.269000000000     0          
O        O      0.289800000000     0.039800000000     0.166666666667     0          
O        O      0.253300000000     0.066500000000     0.093733333333     0          
O        O      0.312450000000     0.028000000000     0.079266666667     0          
O        O      0.253800000000     0.496200000000     0.110000000000     0          
T        Si     0.217100000000     0.472800000000     0.112400000000     0          
T        Si     0.273250000000     0.417200000000     0.279833333333     0          
T        Si     0.217900000000     0.332800000000     0.028766666667     0          
O        O      0.315700000000     0.184300000000     0.000000000000     0          
O        O      0.375000000000     0.209850000000     0.038600000000     0          
O        O      0.438900000000     0.311100000000     0.279200000000     0          
O        O      0.421400000000     0.254550000000     0.331433333333     0          
O        O      0.375000000000     0.280700000000     0.269000000000     0          
O        O      0.210200000000     0.289800000000     0.166666666667     0          
O        O      0.183500000000     0.253300000000     0.093733333333     0          
O        O      0.222000000000     0.312450000000     0.079266666667     0          
O        O      0.253800000000     0.253800000000     0.110000000000     0          
T        Si     0.277200000000     0.217100000000     0.112400000000     0          
T        Si     0.332800000000     0.273250000000     0.279833333333     0          
T        Si     0.417200000000     0.217900000000     0.028766666667     0          
O        O      0.290150000000     0.125000000000     0.294733333333     0          
O        O      0.188900000000     0.061100000000     0.054133333333     0          
O        O      0.245450000000     0.078600000000     0.001900000000     0          
O        O      0.219300000000     0.125000000000     0.064333333333     0          
O        O      0.246700000000     0.316500000000     0.239600000000     0          
O        O      0.187550000000     0.278000000000     0.254066666667     0          
O        O      0.246200000000     0.246200000000     0.223333333333     0          
T        Si     0.282900000000     0.222800000000     0.220933333333     0          
T        Si     0.226750000000     0.167200000000     0.053500000000     0          
T        Si     0.282100000000     0.082800000000     0.304566666667     0          
O        O      0.125000000000     0.290150000000     0.294733333333     0          
O        O      0.188900000000     0.188900000000     0.054133333333     0          
O        O      0.171400000000     0.245450000000     0.001900000000     0          
O        O      0.125000000000     0.219300000000     0.064333333333     0          
O        O      0.433500000000     0.246700000000     0.239600000000     0          
O        O      0.472000000000     0.187550000000     0.254066666667     0          
O        O      0.003800000000     0.246200000000     0.223333333333     0          
T        Si     0.027200000000     0.282900000000     0.220933333333     0          
T        Si     0.082800000000     0.226750000000     0.053500000000     0          
T        Si     0.167200000000     0.282100000000     0.304566666667     0          
O        O      0.459850000000     0.125000000000     0.294733333333     0          
O        O      0.061100000000     0.188900000000     0.054133333333     0          
O        O      0.004550000000     0.171400000000     0.001900000000     0          
O        O      0.030700000000     0.125000000000     0.064333333333     0          
O        O      0.003300000000     0.433500000000     0.239600000000     0          
O        O      0.062450000000     0.472000000000     0.254066666667     0          
O        O      0.003800000000     0.003800000000     0.223333333333     0          
T        Si     0.467100000000     0.027200000000     0.220933333333     0          
T        Si     0.023250000000     0.082800000000     0.053500000000     0          
T        Si     0.467900000000     0.167200000000     0.304566666667     0          
O        O      0.125000000000     0.459850000000     0.294733333333     0          
O        O      0.061100000000     0.061100000000     0.054133333333     0          
O        O      0.078600000000     0.004550000000     0.001900000000     0          
O        O      0.125000000000     0.030700000000     0.064333333333     0          
O        O      0.316500000000     0.003300000000     0.239600000000     0          
O        O      0.278000000000     0.062450000000     0.254066666667     0          
O        O      0.246200000000     0.003800000000     0.223333333333     0          
T        Si     0.222800000000     0.467100000000     0.220933333333     0          
T        Si     0.167200000000     0.023250000000     0.053500000000     0          
T        Si     0.082800000000     0.467900000000     0.304566666667     0          
O        O      0.434300000000     0.184300000000     0.000000000000     0          
O        O      0.004550000000     0.078600000000     0.001900000000     0          
O        O      0.039800000000     0.289800000000     0.166666666667     0          
O        O      0.003300000000     0.316500000000     0.239600000000     0          
O        O      0.062450000000     0.278000000000     0.254066666667     0          
T        Si     0.467100000000     0.222800000000     0.220933333333     0          
T        Si     0.023250000000     0.167200000000     0.053500000000     0          
T        Si     0.467900000000     0.082800000000     0.304566666667     0          
O        O      0.065700000000     0.434300000000     0.000000000000     0          
O        O      0.171400000000     0.004550000000     0.001900000000     0          
O        O      0.460200000000     0.039800000000     0.166666666667     0          
O        O      0.433500000000     0.003300000000     0.239600000000     0          
O        O      0.472000000000     0.062450000000     0.254066666667     0          
T        Si     0.027200000000     0.467100000000     0.220933333333     0          
T        Si     0.082800000000     0.023250000000     0.053500000000     0          
T        Si     0.167200000000     0.467900000000     0.304566666667     0          
O        O      0.315700000000     0.065700000000     0.000000000000     0          
O        O      0.245450000000     0.171400000000     0.001900000000     0          
O        O      0.210200000000     0.460200000000     0.166666666667     0          
O        O      0.246700000000     0.433500000000     0.239600000000     0          
O        O      0.187550000000     0.472000000000     0.254066666667     0          
T        Si     0.282900000000     0.027200000000     0.220933333333     0          
T        Si     0.226750000000     0.082800000000     0.053500000000     0          
T        Si     0.282100000000     0.167200000000     0.304566666667     0          
O        O      0.184300000000     0.315700000000     0.000000000000     0          
O        O      0.078600000000     0.245450000000     0.001900000000     0          
O        O      0.289800000000     0.210200000000     0.166666666667     0          
O        O      0.316500000000     0.246700000000     0.239600000000     0          
O        O      0.278000000000     0.187550000000     0.254066666667     0          
T        Si     0.222800000000     0.282900000000     0.220933333333     0          
T        Si     0.167200000000     0.226750000000     0.053500000000     0          
T        Si     0.082800000000     0.282100000000     0.304566666667     0          
O        O      0.254550000000     0.421400000000     0.331433333333     0          
O        O      0.253300000000     0.183500000000     0.093733333333     0          
O        O      0.312450000000     0.222000000000     0.079266666667     0          
T        Si     0.217100000000     0.277200000000     0.112400000000     0          
T        Si     0.273250000000     0.332800000000     0.279833333333     0          
T        Si     0.217900000000     0.417200000000     0.028766666667     0          
O        O      0.328600000000     0.254550000000     0.331433333333     0          
O        O      0.066500000000     0.253300000000     0.093733333333     0          
O        O      0.028000000000     0.312450000000     0.079266666667     0          
T        Si     0.472800000000     0.217100000000     0.112400000000     0          
T        Si     0.417200000000     0.273250000000     0.279833333333     0          
T        Si     0.332800000000     0.217900000000     0.028766666667     0          
O        O      0.495450000000     0.328600000000     0.331433333333     0          
O        O      0.496700000000     0.066500000000     0.093733333333     0          
O        O      0.437550000000     0.028000000000     0.079266666667     0          
T        Si     0.032900000000     0.472800000000     0.112400000000     0          
T        Si     0.476750000000     0.417200000000     0.279833333333     0          
T        Si     0.032100000000     0.332800000000     0.028766666667     0          
O        O      0.421400000000     0.495450000000     0.331433333333     0          
O        O      0.183500000000     0.496700000000     0.093733333333     0          
O        O      0.222000000000     0.437550000000     0.079266666667     0          
T        Si     0.277200000000     0.032900000000     0.112400000000     0          
T        Si     0.332800000000     0.476750000000     0.279833333333     0          
T        Si     0.417200000000     0.032100000000     0.028766666667     0          
O        O      0.065700000000     0.315700000000     0.333333333333     0          
O        O      0.040150000000     0.375000000000     0.371933333333     0          
O        O      0.438900000000     0.438900000000     0.612533333333     0          
O        O      0.495450000000     0.421400000000     0.664766666667     0          
O        O      0.469300000000     0.375000000000     0.602333333333     0          
O        O      0.460200000000     0.210200000000     0.500000000000     0          
O        O      0.496700000000     0.183500000000     0.427066666667     0          
O        O      0.437550000000     0.222000000000     0.412600000000     0          
O        O      0.496200000000     0.253800000000     0.443333333333     0          
T        Si     0.032900000000     0.277200000000     0.445733333333     0          
T        Si     0.476750000000     0.332800000000     0.613166666667     0          
T        Si     0.032100000000     0.417200000000     0.362100000000     0          
O        O      0.434300000000     0.065700000000     0.333333333333     0          
O        O      0.375000000000     0.040150000000     0.371933333333     0          
O        O      0.311100000000     0.438900000000     0.612533333333     0          
O        O      0.328600000000     0.495450000000     0.664766666667     0          
O        O      0.375000000000     0.469300000000     0.602333333333     0          
O        O      0.039800000000     0.460200000000     0.500000000000     0          
O        O      0.066500000000     0.496700000000     0.427066666667     0          
O        O      0.028000000000     0.437550000000     0.412600000000     0          
O        O      0.496200000000     0.496200000000     0.443333333333     0          
T        Si     0.472800000000     0.032900000000     0.445733333333     0          
T        Si     0.417200000000     0.476750000000     0.613166666667     0          
T        Si     0.332800000000     0.032100000000     0.362100000000     0          
O        O      0.184300000000     0.434300000000     0.333333333333     0          
O        O      0.209850000000     0.375000000000     0.371933333333     0          
O        O      0.311100000000     0.311100000000     0.612533333333     0          
O        O      0.254550000000     0.328600000000     0.664766666667     0          
O        O      0.280700000000     0.375000000000     0.602333333333     0          
O        O      0.289800000000     0.039800000000     0.500000000000     0          
O        O      0.253300000000     0.066500000000     0.427066666667     0          
O        O      0.312450000000     0.028000000000     0.412600000000     0          
O        O      0.253800000000     0.496200000000     0.443333333333     0          
T        Si     0.217100000000     0.472800000000     0.445733333333     0          
T        Si     0.273250000000     0.417200000000     0.613166666667     0          
T        Si     0.217900000000     0.332800000000     0.362100000000     0          
O        O      0.315700000000     0.184300000000     0.333333333333     0          
O        O      0.375000000000     0.209850000000     0.371933333333     0          
O        O      0.438900000000     0.311100000000     0.612533333333     0          
O        O      0.421400000000     0.254550000000     0.664766666667     0          
O        O      0.375000000000     0.280700000000     0.602333333333     0          
O        O      0.210200000000     0.289800000000     0.500000000000     0          
O        O      0.183500000000     0.253300000000     0.427066666667     0          
O        O      0.222000000000     0.312450000000     0.412600000000     0          
O        O      0.253800000000     0.253800000000     0.443333333333     0          
T        Si     0.277200000000     0.217100000000     0.445733333333     0          
T        Si     0.332800000000     0.273250000000     0.613166666667     0          
T        Si     0.417200000000     0.217900000000     0.362100000000     0          
O        O      0.290150000000     0.125000000000     0.628066666667     0          
O        O      0.188900000000     0.061100000000     0.387466666667     0          
O        O      0.245450000000     0.078600000000     0.335233333333     0          
O        O      0.219300000000     0.125000000000     0.397666666667     0          
O        O      0.246700000000     0.316500000000     0.572933333333     0          
O        O      0.187550000000     0.278000000000     0.587400000000     0          
O        O      0.246200000000     0.246200000000     0.556666666667     0          
T        Si     0.282900000000     0.222800000000     0.554266666667     0          
T        Si     0.226750000000     0.167200000000     0.386833333333     0          
T        Si     0.282100000000     0.082800000000     0.637900000000     0          
O        O      0.125000000000     0.290150000000     0.628066666667     0          
O        O      0.188900000000     0.188900000000     0.387466666667     0          
O        O      0.171400000000     0.245450000000     0.335233333333     0          
O        O      0.125000000000     0.219300000000     0.397666666667     0          
O        O      0.433500000000     0.246700000000     0.572933333333     0          
O        O      0.472000000000     0.187550000000     0.587400000000     0          
O        O      0.003800000000     0.246200000000     0.556666666667     0          
T        Si     0.027200000000     0.282900000000     0.554266666667     0          
T        Si     0.082800000000     0.226750000000     0.386833333333     0          
T        Si     0.167200000000     0.282100000000     0.637900000000     0          
O        O      0.459850000000     0.125000000000     0.628066666667     0          
O        O      0.061100000000     0.188900000000     0.387466666667     0          
O        O      0.004550000000     0.171400000000     0.335233333333     0          
O        O      0.030700000000     0.125000000000     0.397666666667     0          
O        O      0.003300000000     0.433500000000     0.572933333333     0          
O        O      0.062450000000     0.472000000000     0.587400000000     0          
O        O      0.003800000000     0.003800000000     0.556666666667     0          
T        Si     0.467100000000     0.027200000000     0.554266666667     0          
T        Si     0.023250000000     0.082800000000     0.386833333333     0          
T        Si     0.467900000000     0.167200000000     0.637900000000     0          
O        O      0.125000000000     0.459850000000     0.628066666667     0          
O        O      0.061100000000     0.061100000000     0.387466666667     0          
O        O      0.078600000000     0.004550000000     0.335233333333     0          
O        O      0.125000000000     0.030700000000     0.397666666667     0          
O        O      0.316500000000     0.003300000000     0.572933333333     0          
O        O      0.278000000000     0.062450000000     0.587400000000     0          
O        O      0.246200000000     0.003800000000     0.556666666667     0          
T        Si     0.222800000000     0.467100000000     0.554266666667     0          
T        Si     0.167200000000     0.023250000000     0.386833333333     0          
T        Si     0.082800000000     0.467900000000     0.637900000000     0          
O        O      0.434300000000     0.184300000000     0.333333333333     0          
O        O      0.004550000000     0.078600000000     0.335233333333     0          
O        O      0.039800000000     0.289800000000     0.500000000000     0          
O        O      0.003300000000     0.316500000000     0.572933333333     0          
O        O      0.062450000000     0.278000000000     0.587400000000     0          
T        Si     0.467100000000     0.222800000000     0.554266666667     0          
T        Si     0.023250000000     0.167200000000     0.386833333333     0          
T        Si     0.467900000000     0.082800000000     0.637900000000     0          
O        O      0.065700000000     0.434300000000     0.333333333333     0          
O        O      0.171400000000     0.004550000000     0.335233333333     0          
O        O      0.460200000000     0.039800000000     0.500000000000     0          
O        O      0.433500000000     0.003300000000     0.572933333333     0          
O        O      0.472000000000     0.062450000000     0.587400000000     0          
T        Si     0.027200000000     0.467100000000     0.554266666667     0          
T        Si     0.082800000000     0.023250000000     0.386833333333     0          
T        Si     0.167200000000     0.467900000000     0.637900000000     0          
O        O      0.315700000000     0.065700000000     0.333333333333     0          
O        O      0.245450000000     0.171400000000     0.335233333333     0          
O        O      0.210200000000     0.460200000000     0.500000000000     0          
O        O      0.246700000000     0.433500000000     0.572933333333     0          
O        O      0.187550000000     0.472000000000     0.587400000000     0          
T        Si     0.282900000000     0.027200000000     0.554266666667     0          
T        Si     0.226750000000     0.082800000000     0.386833333333     0          
T        Si     0.282100000000     0.167200000000     0.637900000000     0          
O        O      0.184300000000     0.315700000000     0.333333333333     0          
O        O      0.078600000000     0.245450000000     0.335233333333     0          
O        O      0.289800000000     0.210200000000     0.500000000000     0          
O        O      0.316500000000     0.246700000000     0.572933333333     0          
O        O      0.278000000000     0.187550000000     0.587400000000     0          
T        Si     0.222800000000     0.282900000000     0.554266666667     0          
T        Si     0.167200000000     0.226750000000     0.386833333333     0          
T        Si     0.082800000000     0.282100000000     0.637900000000     0          
O        O      0.254550000000     0.421400000000     0.664766666667     0          
O        O      0.253300000000     0.183500000000     0.427066666667     0          
O        O      0.312450000000     0.222000000000     0.412600000000     0          
T        Si     0.217100000000     0.277200000000     0.445733333333     0          
T        Si     0.273250000000     0.332800000000     0.613166666667     0          
T        Si     0.217900000000     0.417200000000     0.362100000000     0          
O        O      0.328600000000     0.254550000000     0.664766666667     0          
O        O      0.066500000000     0.253300000000     0.427066666667     0          
O        O      0.028000000000     0.312450000000     0.412600000000     0          
T        Si     0.472800000000     0.217100000000     0.445733333333     0          
T        Si     0.417200000000     0.273250000000     0.613166666667     0          
T        Si     0.332800000000     0.217900000000     0.362100000000     0          
O        O      0.495450000000     0.328600000000     0.664766666667     0          
O        O      0.496700000000     0.066500000000     0.427066666667     0          
O        O      0.437550000000     0.028000000000     0.412600000000     0          
T        Si     0.032900000000     0.472800000000     0.445733333333     0          
T        Si     0.476750000000     0.417200000000     0.613166666667     0          
T        Si     0.032100000000     0.332800000000     0.362100000000     0          
O        O      0.421400000000     0.495450000000     0.664766666667     0          
O        O      0.183500000000     0.496700000000     0.427066666667     0          
O        O      0.222000000000     0.437550000000     0.412600000000     0          
T        Si     0.277200000000     0.032900000000     0.445733333333     0          
T        Si     0.332800000000     0.476750000000     0.613166666667     0          
T        Si     0.417200000000     0.032100000000     0.362100000000     0          
O        O      0.065700000000     0.315700000000     0.666666666667     0          
O        O      0.040150000000     0.375000000000     0.705266666667     0          
O        O      0.438900000000     0.438900000000     0.945866666667     0          
O        O      0.495450000000     0.421400000000     0.998100000000     0          
O        O      0.469300000000     0.375000000000     0.935666666667     0          
O        O      0.460200000000     0.210200000000     0.833333333333     0          
O        O      0.496700000000     0.183500000000     0.760400000000     0          
O        O      0.437550000000     0.222000000000     0.745933333333     0          
O        O      0.496200000000     0.253800000000     0.776666666667     0          
T        Si     0.032900000000     0.277200000000     0.779066666667     0          
T        Si     0.476750000000     0.332800000000     0.946500000000     0          
T        Si     0.032100000000     0.417200000000     0.695433333333     0          
O        O      0.434300000000     0.065700000000     0.666666666667     0          
O        O      0.375000000000     0.040150000000     0.705266666667     0          
O        O      0.311100000000     0.438900000000     0.945866666667     0          
O        O      0.328600000000     0.495450000000     0.998100000000     0          
O        O      0.375000000000     0.469300000000     0.935666666667     0          
O        O      0.039800000000     0.460200000000     0.833333333333     0          
O        O      0.066500000000     0.496700000000     0.760400000000     0          
O        O      0.028000000000     0.437550000000     0.745933333333     0          
O        O      0.496200000000     0.496200000000     0.776666666667     0          
T        Si     0.472800000000     0.032900000000     0.779066666667     0          
T        Si     0.417200000000     0.476750000000     0.946500000000     0          
T        Si     0.332800000000     0.032100000000     0.695433333333     0          
O        O      0.184300000000     0.434300000000     0.666666666667     0          
O        O      0.209850000000     0.375000000000     0.705266666667     0          
O        O      0.311100000000     0.311100000000     0.945866666667     0          
O        O      0.254550000000     0.328600000000     0.998100000000     0          
O        O      0.280700000000     0.375000000000     0.935666666667     0          
O        O      0.289800000000     0.039800000000     0.833333333333     0          
O        O      0.253300000000     0.066500000000     0.760400000000     0          
O        O      0.312450000000     0.028000000000     0.745933333333     0          
O        O      0.253800000000     0.496200000000     0.776666666667     0          
T        Si     0.217100000000     0.472800000000     0.779066666667     0          
T        Si     0.273250000000     0.417200000000     0.946500000000     0          
T        Si     0.217900000000     0.332800000000     0.695433333333     0          
O        O      0.315700000000     0.184300000000     0.666666666667     0          
O        O      0.375000000000     0.209850000000     0.705266666667     0          
O        O      0.438900000000     0.311100000000     0.945866666667     0          
O        O      0.421400000000     0.254550000000     0.998100000000     0          
O        O      0.375000000000     0.280700000000     0.935666666667     0          
O        O      0.210200000000     0.289800000000     0.833333333333     0          
O        O      0.183500000000     0.253300000000     0.760400000000     0          
O        O      0.222000000000     0.312450000000     0.745933333333     0          
O        O      0.253800000000     0.253800000000     0.776666666667     0          
T        Si     0.277200000000     0.217100000000     0.779066666667     0          
T        Si     0.332800000000     0.273250000000     0.946500000000     0          
T        Si     0.417200000000     0.217900000000     0.695433333333     0          
O        O      0.290150000000     0.125000000000     0.961400000000     0          
O        O      0.188900000000     0.061100000000     0.720800000000     0          
O        O      0.245450000000     0.078600000000     0.668566666667     0          
O        O      0.219300000000     0.125000000000     0.731000000000     0          
O        O      0.246700000000     0.316500000000     0.906266666667     0          
O        O      0.187550000000     0.278000000000     0.920733333333     0          
O        O      0.246200000000     0.246200000000     0.890000000000     0          
T        Si     0.282900000000     0.222800000000     0.887600000000     0          
T        Si     0.226750000000     0.167200000000     0.720166666667     0          
T        Si     0.282100000000     0.082800000000     0.971233333333     0          
O        O      0.125000000000     0.290150000000     0.961400000000     0          
O        O      0.188900000000     0.188900000000     0.720800000000     0          
O        O      0.171400000000     0.245450000000     0.668566666667     0          
O        O      0.125000000000     0.219300000000     0.731000000000     0          
O        O      0.433500000000     0.246700000000     0.906266666667     0          
O        O      0.472000000000     0.187550000000     0.920733333333     0          
O        O      0.003800000000     0.246200000000     0.890000000000     0          
T        Si     0.027200000000     0.282900000000     0.887600000000     0          
T        Si     0.082800000000     0.226750000000     0.720166666667     0          
T        Si     0.167200000000     0.282100000000     0.971233333333     0          
O        O      0.459850000000     0.125000000000     0.961400000000     0          
O        O      0.061100000000     0.188900000000     0.720800000000     0          
O        O      0.004550000000     0.171400000000     0.668566666667     0          
O        O      0.030700000000     0.125000000000     0.731000000000     0          
O        O      0.003300000000     0.433500000000     0.906266666667     0          
O        O      0.062450000000     0.472000000000     0.920733333333     0          
O        O      0.003800000000     0.003800000000     0.890000000000     0          
T        Si     0.467100000000     0.027200000000     0.887600000000     0          
T        Si     0.023250000000     0.082800000000     0.720166666667     0          
T        Si     0.467900000000     0.167200000000     0.971233333333     0          
O        O      0.125000000000     0.459850000000     0.961400000000     0          
O        O      0.061100000000     0.061100000000     0.720800000000     0          
O        O      0.078600000000     0.004550000000     0.668566666667     0          
O        O      0.125000000000     0.030700000000     0.731000000000     0          
O        O      0.316500000000     0.003300000000     0.906266666667     0          
O        O      0.278000000000     0.062450000000     0.920733333333     0          
O        O      0.246200000000     0.003800000000     0.890000000000     0          
T        Si     0.222800000000     0.467100000000     0.887600000000     0          
T        Si     0.167200000000     0.023250000000     0.720166666667     0          
T        Si     0.082800000000     0.467900000000     0.971233333333     0          
O        O      0.434300000000     0.184300000000     0.666666666667     0          
O        O      0.004550000000     0.078600000000     0.668566666667     0          
O        O      0.039800000000     0.289800000000     0.833333333333     0          
O        O      0.003300000000     0.316500000000     0.906266666667     0          
O        O      0.062450000000     0.278000000000     0.920733333333     0          
T        Si     0.467100000000     0.222800000000     0.887600000000     0          
T        Si     0.023250000000     0.167200000000     0.720166666667     0          
T        Si     0.467900000000     0.082800000000     0.971233333333     0          
O        O      0.065700000000     0.434300000000     0.666666666667     0          
O        O      0.171400000000     0.004550000000     0.668566666667     0          
O        O      0.460200000000     0.039800000000     0.833333333333     0          
O        O      0.433500000000     0.003300000000     0.906266666667     0          
O        O      0.472000000000     0.062450000000     0.920733333333     0          
T        Si     0.027200000000     0.467100000000     0.887600000000     0          
T        Si     0.082800000000     0.023250000000     0.720166666667     0          
T        Si     0.167200000000     0.467900000000     0.971233333333     0          
O        O      0.315700000000     0.065700000000     0.666666666667     0          
O        O      0.245450000000     0.171400000000     0.668566666667     0          
O        O      0.210200000000     0.460200000000     0.833333333333     0          
O        O      0.246700000000     0.433500000000     0.906266666667     0          
O        O      0.187550000000     0.472000000000     0.920733333333     0          
T        Si     0.282900000000     0.027200000000     0.887600000000     0          
T        Si     0.226750000000     0.082800000000     0.720166666667     0          
T        Si     0.282100000000     0.167200000000     0.971233333333     0          
O        O      0.184300000000     0.315700000000     0.666666666667     0          
O        O      0.078600000000     0.245450000000     0.668566666667     0          
O        O      0.289800000000     0.210200000000     0.833333333333     0          
O        O      0.316500000000     0.246700000000     0.906266666667     0          
O        O      0.278000000000     0.187550000000     0.920733333333     0          
T        Si     0.222800000000     0.282900000000     0.887600000000     0          
T        Si     0.167200000000     0.226750000000     0.720166666667     0          
T        Si     0.082800000000     0.282100000000     0.971233333333     0          
O        O      0.254550000000     0.421400000000     0.998100000000     0          
O        O      0.253300000000     0.183500000000     0.760400000000     0          
O        O      0.312450000000     0.222000000000     0.745933333333     0          
T        Si     0.217100000000     0.277200000000     0.779066666667     0          
T        Si     0.273250000000     0.332800000000     0.946500000000     0          
T        Si     0.217900000000     0.417200000000     0.695433333333     0          
O        O      0.328600000000     0.254550000000     0.998100000000     0          
O        O      0.066500000000     0.253300000000     0.760400000000     0          
O        O      0.028000000000     0.312450000000     0.745933333333     0          
T        Si     0.472800000000     0.217100000000     0.779066666667     0          
T        Si     0.417200000000     0.273250000000     0.946500000000     0          
T        Si     0.332800000000     0.217900000000     0.695433333333     0          
O        O      0.495450000000     0.328600000000     0.998100000000     0          
O        O      0.496700000000     0.066500000000     0.760400000000     0          
O        O      0.437550000000     0.028000000000     0.745933333333     0          
T        Si     0.032900000000     0.472800000000     0.779066666667     0          
T        Si     0.476750000000     0.417200000000     0.946500000000     0          
T        Si     0.032100000000     0.332800000000     0.695433333333     0          
O        O      0.421400000000     0.495450000000     0.998100000000     0          
O        O      0.183500000000     0.496700000000     0.760400000000     0          
O        O      0.222000000000     0.437550000000     0.745933333333     0          
T        Si     0.277200000000     0.032900000000     0.779066666667     0          
T        Si     0.332800000000     0.476750000000     0.946500000000     0          
T        Si     0.417200000000     0.032100000000     0.695433333333     0          
O        O      0.065700000000     0.815700000000     0.000000000000     0          
O        O      0.040150000000     0.875000000000     0.038600000000     0          
O        O      0.438900000000     0.938900000000     0.279200000000     0          
O        O      0.495450000000     0.921400000000     0.331433333333     0          
O        O      0.469300000000     0.875000000000     0.269000000000     0          
O        O      0.460200000000     0.710200000000     0.166666666667     0          
O        O      0.496700000000     0.683500000000     0.093733333333     0          
O        O      0.437550000000     0.722000000000     0.079266666667     0          
O        O      0.496200000000     0.753800000000     0.110000000000     0          
T        Si     0.032900000000     0.777200000000     0.112400000000     0          
T        Si     0.476750000000     0.832800000000     0.279833333333     0          
T        Si     0.032100000000     0.917200000000     0.028766666667     0          
O        O      0.434300000000     0.565700000000     0.000000000000     0          
O        O      0.375000000000     0.540150000000     0.038600000000     0          
O        O      0.311100000000     0.938900000000     0.279200000000     0          
O        O      0.328600000000     0.995450000000     0.331433333333     0          
O        O      0.375000000000     0.969300000000     0.269000000000     0          
O        O      0.039800000000     0.960200000000     0.166666666667     0          
O        O      0.066500000000     0.996700000000     0.093733333333     0          
O        O      0.028000000000     0.937550000000     0.079266666667     0          
O        O      0.496200000000     0.996200000000     0.110000000000     0          
T        Si     0.472800000000     0.532900000000     0.112400000000     0          
T        Si     0.417200000000     0.976750000000     0.279833333333     0          
T        Si     0.332800000000     0.532100000000     0.028766666667     0          
O        O      0.184300000000     0.934300000000     0.000000000000     0          
O        O      0.209850000000     0.875000000000     0.038600000000     0          
O        O      0.311100000000     0.811100000000     0.279200000000     0          
O        O      0.254550000000     0.828600000000     0.331433333333     0          
O        O      0.280700000000     0.875000000000     0.269000000000     0          
O        O      0.289800000000     0.539800000000     0.166666666667     0          
O        O      0.253300000000     0.566500000000     0.093733333333     0          
O        O      0.312450000000     0.528000000000     0.079266666667     0          
O        O      0.253800000000     0.996200000000     0.110000000000     0          
T        Si     0.217100000000     0.972800000000     0.112400000000     0          
T        Si     0.273250000000     0.917200000000     0.279833333333     0          
T        Si     0.217900000000     0.832800000000     0.028766666667     0          
O        O      0.315700000000     0.684300000000     0.000000000000     0          
O        O      0.375000000000     0.709850000000     0.038600000000     0          
O        O      0.438900000000     0.811100000000     0.279200000000     0          
O        O      0.421400000000     0.754550000000     0.331433333333     0          
O        O      0.375000000000     0.780700000000     0.269000000000     0          
O        O      0.210200000000     0.789800000000     0.166666666667     0          
O        O      0.183500000000     0.753300000000     0.093733333333     0          
O        O      0.222000000000     0.812450000000     0.079266666667     0          
O        O      0.253800000000     0.753800000000     0.110000000000     0          
T        Si     0.277200000000     0.717100000000     0.112400000000     0          
T        Si     0.332800000000     0.773250000000     0.279833333333     0          
T        Si     0.417200000000     0.717900000000     0.028766666667     0          
O        O      0.290150000000     0.625000000000     0.294733333333     0          
O        O      0.188900000000     0.561100000000     0.054133333333     0          
O        O      0.245450000000     0.578600000000     0.001900000000     0          
O        O      0.219300000000     0.625000000000     0.064333333333     0          
O        O      0.246700000000     0.816500000000     0.239600000000     0          
O        O      0.187550000000     0.778000000000     0.254066666667     0          
O        O      0.246200000000     0.746200000000     0.223333333333     0          
T        Si     0.282900000000     0.722800000000     0.220933333333     0          
T        Si     0.226750000000     0.667200000000     0.053500000000     0          
T        Si     0.282100000000     0.582800000000     0.304566666667     0          
O        O      0.125000000000     0.790150000000     0.294733333333     0          
O        O      0.188900000000     0.688900000000     0.054133333333     0          
O        O      0.171400000000     0.745450000000     0.001900000000     0          
O        O      0.125000000000     0.719300000000     0.064333333333     0          
O        O      0.433500000000     0.746700000000     0.239600000000     0          
O        O      0.472000000000     0.687550000000     0.254066666667     0          
O        O      0.003800000000     0.746200000000     0.223333333333     0          
T        Si     0.027200000000     0.782900000000     0.220933333333     0          
T        Si     0.082800000000     0.726750000000     0.053500000000     0          
T        Si     0.167200000000     0.782100000000     0.304566666667     0          
O        O      0.459850000000     0.625000000000     0.294733333333     0          
O        O      0.061100000000     0.688900000000     0.054133333333     0          
O        O      0.004550000000     0.671400000000     0.001900000000     0          
O        O      0.030700000000     0.625000000000     0.064333333333     0          
O        O      0.003300000000     0.933500000000     0.239600000000     0          
O        O      0.062450000000     0.972000000000     0.254066666667     0          
O        O      0.003800000000     0.503800000000     0.223333333333     0          
T        Si     0.467100000000     0.527200000000     0.220933333333     0          
T        Si     0.023250000000     0.582800000000     0.053500000000     0          
T        Si     0.467900000000     0.667200000000     0.304566666667     0          
O        O      0.125000000000     0.959850000000     0.294733333333     0          
O        O      0.061100000000     0.561100000000     0.054133333333     0          
O        O      0.078600000000     0.504550000000     0.001900000000     0          
O        O      0.125000000000     0.530700000000     0.064333333333     0          
O        O      0.316500000000     0.503300000000     0.239600000000     0          
O        O      0.278000000000     0.562450000000     0.254066666667     0          
O        O      0.246200000000     0.503800000000     0.223333333333     0          
T        Si     0.222800000000     0.967100000000     0.220933333333     0          
T        Si     0.167200000000     0.523250000000     0.053500000000     0          
T        Si     0.082800000000     0.967900000000     0.304566666667     0          
O        O      0.434300000000     0.684300000000     0.000000000000     0          
O        O      0.004550000000     0.578600000000     0.001900000000     0          
O        O      0.039800000000     0.789800000000     0.166666666667     0          
O        O      0.003300000000     0.816500000000     0.239600000000     0          
O        O      0.062450000000     0.778000000000     0.254066666667     0          
T        Si     0.467100000000     0.722800000000     0.220933333333     0          
T        Si     0.023250000000     0.667200000000     0.053500000000     0          
T        Si     0.467900000000     0.582800000000     0.304566666667     0          
O        O      0.065700000000     0.934300000000     0.000000000000     0          
O        O      0.171400000000     0.504550000000     0.001900000000     0          
O        O      0.460200000000     0.539800000000     0.166666666667     0          
O        O      0.433500000000     0.503300000000     0.239600000000     0          
O        O      0.472000000000     0.562450000000     0.254066666667     0          
T        Si     0.027200000000     0.967100000000     0.220933333333     0          
T        Si     0.082800000000     0.523250000000     0.053500000000     0          
T        Si     0.167200000000     0.967900000000     0.304566666667     0          
O        O      0.315700000000     0.565700000000     0.000000000000     0          
O        O      0.245450000000     0.671400000000     0.001900000000     0          
O        O      0.210200000000     0.960200000000     0.166666666667     0          
O        O      0.246700000000     0.933500000000     0.239600000000     0          
O        O      0.187550000000     0.972000000000     0.254066666667     0          
T        Si     0.282900000000     0.527200000000     0.220933333333     0          
T        Si     0.226750000000     0.582800000000     0.053500000000     0          
T        Si     0.282100000000     0.667200000000     0.304566666667     0          
O        O      0.184300000000     0.815700000000     0.000000000000     0          
O        O      0.078600000000     0.745450000000     0.001900000000     0          
O        O      0.289800000000     0.710200000000     0.166666666667     0          
O        O      0.316500000000     0.746700000000     0.239600000000     0          
O        O      0.278000000000     0.687550000000     0.254066666667     0          
T        Si     0.222800000000     0.782900000000     0.220933333333     0          
T        Si     0.167200000000     0.726750000000     0.053500000000     0          
T        Si     0.082800000000     0.782100000000     0.304566666667     0          
O        O      0.254550000000     0.921400000000     0.331433333333     0          
O        O      0.253300000000     0.683500000000     0.093733333333     0          
O        O      0.312450000000     0.722000000000     0.079266666667     0          
T        Si     0.217100000000     0.777200000000     0.112400000000     0          
T        Si     0.273250000000     0.832800000000     0.279833333333     0          
T        Si     0.217900000000     0.917200000000     0.028766666667     0          
O        O      0.328600000000     0.754550000000     0.331433333333     0          
O        O      0.066500000000     0.753300000000     0.093733333333     0          
O        O      0.028000000000     0.812450000000     0.079266666667     0          
T        Si     0.472800000000     0.717100000000     0.112400000000     0          
T        Si     0.417200000000     0.773250000000     0.279833333333     0          
T        Si     0.332800000000     0.717900000000     0.028766666667     0          
O        O      0.495450000000     0.828600000000     0.331433333333     0          
O        O      0.496700000000     0.566500000000     0.093733333333     0          
O        O      0.437550000000     0.528000000000     0.079266666667     0          
T        Si     0.032900000000     0.972800000000     0.112400000000     0          
T        Si     0.476750000000     0.917200000000     0.279833333333     0          
T        Si     0.032100000000     0.832800000000     0.028766666667     0          
O        O      0.421400000000     0.995450000000     0.331433333333     0          
O        O      0.183500000000     0.996700000000     0.093733333333     0          
O        O      0.222000000000     0.937550000000     0.079266666667     0          
T        Si     0.277200000000     0.532900000000     0.112400000000     0          
T        Si     0.332800000000     0.976750000000     0.279833333333     0          
T        Si     0.417200000000     0.532100000000     0.028766666667     0          
O        O      0.065700000000     0.815700000000     0.333333333333     0          
O        O      0.040150000000     0.875000000000     0.371933333333     0          
O        O      0.438900000000     0.938900000000     0.612533333333     0          
O        O      0.495450000000     0.921400000000     0.664766666667     0          
O        O      0.469300000000     0.875000000000     0.602333333333     0          
O        O      0.460200000000     0.710200000000     0.500000000000     0          
O        O      0.496700000000     0.683500000000     0.427066666667     0          
O        O      0.437550000000     0.722000000000     0.412600000000     0          
O        O      0.496200000000     0.753800000000     0.443333333333     0          
T        Si     0.032900000000     0.777200000000     0.445733333333     0          
T        Si     0.476750000000     0.832800000000     0.613166666667     0          
T        Si     0.032100000000     0.917200000000     0.362100000000     0          
O        O      0.434300000000     0.565700000000     0.333333333333     0          
O        O      0.375000000000     0.540150000000     0.371933333333     0          
O        O      0.311100000000     0.938900000000     0.612533333333     0          
O        O      0.328600000000     0.995450000000     0.664766666667     0          
O        O      0.375000000000     0.969300000000     0.602333333333     0          
O        O      0.039800000000     0.960200000000     0.500000000000     0          
O        O      0.066500000000     0.996700000000     0.427066666667     0          
O        O      0.028000000000     0.937550000000     0.412600000000     0          
O        O      0.496200000000     0.996200000000     0.443333333333     0          
T        Si     0.472800000000     0.532900000000     0.445733333333     0          
T        Si     0.417200000000     0.976750000000     0.613166666667     0          
T        Si     0.332800000000     0.532100000000     0.362100000000     0          
O        O      0.184300000000     0.934300000000     0.333333333333     0          
O        O      0.209850000000     0.875000000000     0.371933333333     0          
O        O      0.311100000000     0.811100000000     0.612533333333     0          
O        O      0.254550000000     0.828600000000     0.664766666667     0          
O        O      0.280700000000     0.875000000000     0.602333333333     0          
O        O      0.289800000000     0.539800000000     0.500000000000     0          
O        O      0.253300000000     0.566500000000     0.427066666667     0          
O        O      0.312450000000     0.528000000000     0.412600000000     0          
O        O      0.253800000000     0.996200000000     0.443333333333     0          
T        Si     0.217100000000     0.972800000000     0.445733333333     0          
T        Si     0.273250000000     0.917200000000     0.613166666667     0          
T        Si     0.217900000000     0.832800000000     0.362100000000     0          
O        O      0.315700000000     0.684300000000     0.333333333333     0          
O        O      0.375000000000     0.709850000000     0.371933333333     0          
O        O      0.438900000000     0.811100000000     0.612533333333     0          
O        O      0.421400000000     0.754550000000     0.664766666667     0          
O        O      0.375000000000     0.780700000000     0.602333333333     0          
O        O      0.210200000000     0.789800000000     0.500000000000     0          
O        O      0.183500000000     0.753300000000     0.427066666667     0          
O        O      0.222000000000     0.812450000000     0.412600000000     0          
O        O      0.253800000000     0.753800000000     0.443333333333     0          
T        Si     0.277200000000     0.717100000000     0.445733333333     0          
T        Si     0.332800000000     0.773250000000     0.613166666667     0          
T        Si     0.417200000000     0.717900000000     0.362100000000     0          
O        O      0.290150000000     0.625000000000     0.628066666667     0          
O        O      0.188900000000     0.561100000000     0.387466666667     0          
O        O      0.245450000000     0.578600000000     0.335233333333     0          
O        O      0.219300000000     0.625000000000     0.397666666667     0          
O        O      0.246700000000     0.816500000000     0.572933333333     0          
O        O      0.187550000000     0.778000000000     0.587400000000     0          
O        O      0.246200000000     0.746200000000     0.556666666667     0          
T        Si     0.282900000000     0.722800000000     0.554266666667     0          
T        Si     0.226750000000     0.667200000000     0.386833333333     0          
T        Si     0.282100000000     0.582800000000     0.637900000000     0          
O        O      0.125000000000     0.790150000000     0.628066666667     0          
O        O      0.188900000000     0.688900000000     0.387466666667     0          
O        O      0.171400000000     0.745450000000     0.335233333333     0          
O        O      0.125000000000     0.719300000000     0.397666666667     0          
O        O      0.433500000000     0.746700000000     0.572933333333     0          
O        O      0.472000000000     0.687550000000     0.587400000000     0          
O        O      0.003800000000     0.746200000000     0.556666666667     0          
T        Si     0.027200000000     0.782900000000     0.554266666667     0          
T        Si     0.082800000000     0.726750000000     0.386833333333     0          
T        Si     0.167200000000     0.782100000000     0.637900000000     0          
O        O      0.459850000000     0.625000000000     0.628066666667     0          
O        O      0.061100000000     0.688900000000     0.387466666667     0          
O        O      0.004550000000     0.671400000000     0.335233333333     0          
O        O      0.030700000000     0.625000000000     0.397666666667     0          
O        O      0.003300000000     0.933500000000     0.572933333333     0          
O        O      0.062450000000     0.972000000000     0.587400000000     0          
O        O      0.003800000000     0.503800000000     0.556666666667     0          
T        Si     0.467100000000     0.527200000000     0.554266666667     0          
T        Si     0.023250000000     0.582800000000     0.386833333333     0          
T        Si     0.467900000000     0.667200000000     0.637900000000     0          
O        O      0.125000000000     0.959850000000     0.628066666667     0          
O        O      0.061100000000     0.561100000000     0.387466666667     0          
O        O      0.078600000000     0.504550000000     0.335233333333     0          
O        O      0.125000000000     0.530700000000     0.397666666667     0          
O        O      0.316500000000     0.503300000000     0.572933333333     0          
O        O      0.278000000000     0.562450000000     0.587400000000     0          
O        O      0.246200000000     0.503800000000     0.556666666667     0          
T        Si     0.222800000000     0.967100000000     0.554266666667     0          
T        Si     0.167200000000     0.523250000000     0.386833333333     0          
T        Si     0.082800000000     0.967900000000     0.637900000000     0          
O        O      0.434300000000     0.684300000000     0.333333333333     0          
O        O      0.004550000000     0.578600000000     0.335233333333     0          
O        O      0.039800000000     0.789800000000     0.500000000000     0          
O        O      0.003300000000     0.816500000000     0.572933333333     0          
O        O      0.062450000000     0.778000000000     0.587400000000     0          
T        Si     0.467100000000     0.722800000000     0.554266666667     0          
T        Si     0.023250000000     0.667200000000     0.386833333333     0          
T        Si     0.467900000000     0.582800000000     0.637900000000     0          
O        O      0.065700000000     0.934300000000     0.333333333333     0          
O        O      0.171400000000     0.504550000000     0.335233333333     0          
O        O      0.460200000000     0.539800000000     0.500000000000     0          
O        O      0.433500000000     0.503300000000     0.572933333333     0          
O        O      0.472000000000     0.562450000000     0.587400000000     0          
T        Si     0.027200000000     0.967100000000     0.554266666667     0          
T        Si     0.082800000000     0.523250000000     0.386833333333     0          
T        Si     0.167200000000     0.967900000000     0.637900000000     0          
O        O      0.315700000000     0.565700000000     0.333333333333     0          
O        O      0.245450000000     0.671400000000     0.335233333333     0          
O        O      0.210200000000     0.960200000000     0.500000000000     0          
O        O      0.246700000000     0.933500000000     0.572933333333     0          
O        O      0.187550000000     0.972000000000     0.587400000000     0          
T        Si     0.282900000000     0.527200000000     0.554266666667     0          
T        Si     0.226750000000     0.582800000000     0.386833333333     0          
T        Si     0.282100000000     0.667200000000     0.637900000000     0          
O        O      0.184300000000     0.815700000000     0.333333333333     0          
O        O      0.078600000000     0.745450000000     0.335233333333     0          
O        O      0.289800000000     0.710200000000     0.500000000000     0          
O        O      0.316500000000     0.746700000000     0.572933333333     0          
O        O      0.278000000000     0.687550000000     0.587400000000     0          
T        Si     0.222800000000     0.782900000000     0.554266666667     0          
T        Si     0.167200000000     0.726750000000     0.386833333333     0          
T        Si     0.082800000000     0.782100000000     0.637900000000     0          
O        O      0.254550000000     0.921400000000     0.664766666667     0          
O        O      0.253300000000     0.683500000000     0.427066666667     0          
O        O      0.312450000000     0.722000000000     0.412600000000     0          
T        Si     0.217100000000     0.777200000000     0.445733333333     0          
T        Si     0.273250000000     0.832800000000     0.613166666667     0          
T        Si     0.217900000000     0.917200000000     0.362100000000     0          
O        O      0.328600000000     0.754550000000     0.664766666667     0          
O        O      0.066500000000     0.753300000000     0.427066666667     0          
O        O      0.028000000000     0.812450000000     0.412600000000     0          
T        Si     0.472800000000     0.717100000000     0.445733333333     0          
T        Si     0.417200000000     0.773250000000     0.613166666667     0          
T        Si     0.332800000000     0.717900000000     0.362100000000     0          
O        O      0.495450000000     0.828600000000     0.664766666667     0          
O        O      0.496700000000     0.566500000000     0.427066666667     0          
O        O      0.437550000000     0.528000000000     0.412600000000     0          
T        Si     0.032900000000     0.972800000000     0.445733333333     0          
T        Si     0.476750000000     0.917200000000     0.613166666667     0          
T        Si     0.032100000000     0.832800000000     0.362100000000     0          
O        O      0.421400000000     0.995450000000     0.664766666667     0          
O        O      0.183500000000     0.996700000000     0.427066666667     0          
O        O      0.222000000000     0.937550000000     0.412600000000     0          
T        Si     0.277200000000     0.532900000000     0.445733333333     0          
T        Si     0.332800000000     0.976750000000     0.613166666667     0          
T        Si     0.417200000000     0.532100000000     0.362100000000     0          
O        O      0.065700000000     0.815700000000     0.666666666667     0          
O        O      0.040150000000     0.875000000000     0.705266666667     0          
O        O      0.438900000000     0.938900000000     0.945866666667     0          
O        O      0.495450000000     0.921400000000     0.998100000000     0          
O        O      0.469300000000     0.875000000000     0.935666666667     0          
O        O      0.460200000000     0.710200000000     0.833333333333     0          
O        O      0.496700000000     0.683500000000     0.760400000000     0          
O        O      0.437550000000     0.722000000000     0.745933333333     0          
O        O      0.496200000000     0.753800000000     0.776666666667     0          
T        Si     0.032900000000     0.777200000000     0.779066666667     0          
T        Si     0.476750000000     0.832800000000     0.946500000000     0          
T        Si     0.032100000000     0.917200000000     0.695433333333     0          
O        O      0.434300000000     0.565700000000     0.666666666667     0          
O        O      0.375000000000     0.540150000000     0.705266666667     0          
O        O      0.311100000000     0.938900000000     0.945866666667     0          
O        O      0.328600000000     0.995450000000     0.998100000000     0          
O        O      0.375000000000     0.969300000000     0.935666666667     0          
O        O      0.039800000000     0.960200000000     0.833333333333     0          
O        O      0.066500000000     0.996700000000     0.760400000000     0          
O        O      0.028000000000     0.937550000000     0.745933333333     0          
O        O      0.496200000000     0.996200000000     0.776666666667     0          
T        Si     0.472800000000     0.532900000000     0.779066666667     0          
T        Si     0.417200000000     0.976750000000     0.946500000000     0          
T        Si     0.332800000000     0.532100000000     0.695433333333     0          
O        O      0.184300000000     0.934300000000     0.666666666667     0          
O        O      0.209850000000     0.875000000000     0.705266666667     0          
O        O      0.311100000000     0.811100000000     0.945866666667     0          
O        O      0.254550000000     0.828600000000     0.998100000000     0          
O        O      0.280700000000     0.875000000000     0.935666666667     0          
O        O      0.289800000000     0.539800000000     0.833333333333     0          
O        O      0.253300000000     0.566500000000     0.760400000000     0          
O        O      0.312450000000     0.528000000000     0.745933333333     0          
O        O      0.253800000000     0.996200000000     0.776666666667     0          
T        Si     0.217100000000     0.972800000000     0.779066666667     0          
T        Si     0.273250000000     0.917200000000     0.946500000000     0          
T        Si     0.217900000000     0.832800000000     0.695433333333     0          
O        O      0.315700000000     0.684300000000     0.666666666667     0          
O        O      0.375000000000     0.709850000000     0.705266666667     0          
O        O      0.438900000000     0.811100000000     0.945866666667     0          
O        O      0.421400000000     0.754550000000     0.998100000000     0          
O        O      0.375000000000     0.780700000000     0.935666666667     0          
O        O      0.210200000000     0.789800000000     0.833333333333     0          
O        O      0.183500000000     0.753300000000     0.760400000000     0          
O        O      0.222000000000     0.812450000000     0.745933333333     0          
O        O      0.253800000000     0.753800000000     0.776666666667     0          
T        Si     0.277200000000     0.717100000000     0.779066666667     0          
T        Si     0.332800000000     0.773250000000     0.946500000000     0          
T        Si     0.417200000000     0.717900000000     0.695433333333     0          
O        O      0.290150000000     0.625000000000     0.961400000000     0          
O        O      0.188900000000     0.561100000000     0.720800000000     0          
O        O      0.245450000000     0.578600000000     0.668566666667     0          
O        O      0.219300000000     0.625000000000     0.731000000000     0          
O        O      0.246700000000     0.816500000000     0.906266666667     0          
O        O      0.187550000000     0.778000000000     0.920733333333     0          
O        O      0.246200000000     0.746200000000     0.890000000000     0          
T        Si     0.282900000000     0.722800000000     0.887600000000     0          
T        Si     0.226750000000     0.667200000000     0.720166666667     0          
T        Si     0.282100000000     0.582800000000     0.971233333333     0          
O        O      0.125000000000     0.790150000000     0.961400000000     0          
O        O      0.188900000000     0.688900000000     0.720800000000     0          
O        O      0.171400000000     0.745450000000     0.668566666667     0          
O        O      0.125000000000     0.719300000000     0.731000000000     0          
O        O      0.433500000000     0.746700000000     0.906266666667     0          
O        O      0.472000000000     0.687550000000     0.920733333333     0          
O        O      0.003800000000     0.746200000000     0.890000000000     0          
T        Si     0.027200000000     0.782900000000     0.887600000000     0          
T        Si     0.082800000000     0.726750000000     0.720166666667     0          
T        Si     0.167200000000     0.782100000000     0.971233333333     0          
O        O      0.459850000000     0.625000000000     0.961400000000     0          
O        O      0.061100000000     0.688900000000     0.720800000000     0          
O        O      0.004550000000     0.671400000000     0.668566666667     0          
O        O      0.030700000000     0.625000000000     0.731000000000     0          
O        O      0.003300000000     0.933500000000     0.906266666667     0          
O        O      0.062450000000     0.972000000000     0.920733333333     0          
O        O      0.003800000000     0.503800000000     0.890000000000     0          
T        Si     0.467100000000     0.527200000000     0.887600000000     0          
T        Si     0.023250000000     0.582800000000     0.720166666667     0          
T        Si     0.467900000000     0.667200000000     0.971233333333     0          
O        O      0.125000000000     0.959850000000     0.961400000000     0          
O        O      0.061100000000     0.561100000000     0.720800000000     0          
O        O      0.078600000000     0.504550000000     0.668566666667     0          
O        O      0.125000000000     0.530700000000     0.731000000000     0          
O        O      0.316500000000     0.503300000000     0.906266666667     0          
O        O      0.278000000000     0.562450000000     0.920733333333     0          
O        O      0.246200000000     0.503800000000     0.890000000000     0          
T        Si     0.222800000000     0.967100000000     0.887600000000     0          
T        Si     0.167200000000     0.523250000000     0.720166666667     0          
T        Si     0.082800000000     0.967900000000     0.971233333333     0          
O        O      0.434300000000     0.684300000000     0.666666666667     0          
O        O      0.004550000000     0.578600000000     0.668566666667     0          
O        O      0.039800000000     0.789800000000     0.833333333333     0          
O        O      0.003300000000     0.816500000000     0.906266666667     0          
O        O      0.062450000000     0.778000000000     0.920733333333     0          
T        Si     0.467100000000     0.722800000000     0.887600000000     0          
T        Si     0.023250000000     0.667200000000     0.720166666667     0          
T        Si     0.467900000000     0.582800000000     0.971233333333     0          
O        O      0.065700000000     0.934300000000     0.666666666667     0          
O        O      0.171400000000     0.504550000000     0.668566666667     0          
O        O      0.460200000000     0.539800000000     0.833333333333     0          
O        O      0.433500000000     0.503300000000     0.906266666667     0          
O        O      0.472000000000     0.562450000000     0.920733333333     0          
T        Si     0.027200000000     0.967100000000     0.887600000000     0          
T        Si     0.082800000000     0.523250000000     0.720166666667     0          
T        Si     0.167200000000     0.967900000000     0.971233333333     0          
O        O      0.315700000000     0.565700000000     0.666666666667     0          
O        O      0.245450000000     0.671400000000     0.668566666667     0          
O        O      0.210200000000     0.960200000000     0.833333333333     0          
O        O      0.246700000000     0.933500000000     0.906266666667     0          
O        O      0.187550000000     0.972000000000     0.920733333333     0          
T        Si     0.282900000000     0.527200000000     0.887600000000     0          
T        Si     0.226750000000     0.582800000000     0.720166666667     0          
T        Si     0.282100000000     0.667200000000     0.971233333333     0          
O        O      0.184300000000     0.815700000000     0.666666666667     0          
O        O      0.078600000000     0.745450000000     0.668566666667     0          
O        O      0.289800000000     0.710200000000     0.833333333333     0          
O        O      0.316500000000     0.746700000000     0.906266666667     0          
O        O      0.278000000000     0.687550000000     0.920733333333     0          
T        Si     0.222800000000     0.782900000000     0.887600000000     0          
T        Si     0.167200000000     0.726750000000     0.720166666667     0          
T        Si     0.082800000000     0.782100000000     0.971233333333     0          
O        O      0.254550000000     0.921400000000     0.998100000000     0          
O        O      0.253300000000     0.683500000000     0.760400000000     0          
O        O      0.312450000000     0.722000000000     0.745933333333     0          
T        Si     0.217100000000     0.777200000000     0.779066666667     0          
T        Si     0.273250000000     0.832800000000     0.946500000000     0          
T        Si     0.217900000000     0.917200000000     0.695433333333     0          
O        O      0.328600000000     0.754550000000     0.998100000000     0          
O        O      0.066500000000     0.753300000000     0.760400000000     0          
O        O      0.028000000000     0.812450000000     0.745933333333     0          
T        Si     0.472800000000     0.717100000000     0.779066666667     0          
T        Si     0.417200000000     0.773250000000     0.946500000000     0          
T        Si     0.332800000000     0.717900000000     0.695433333333     0          
O        O      0.495450000000     0.828600000000     0.998100000000     0          
O        O      0.496700000000     0.566500000000     0.760400000000     0          
O        O      0.437550000000     0.528000000000     0.745933333333     0          
T        Si     0.032900000000     0.972800000000     0.779066666667     0          
T        Si     0.476750000000     0.917200000000     0.946500000000     0          
T        Si     0.032100000000     0.832800000000     0.695433333333     0          
O        O      0.421400000000     0.995450000000     0.998100000000     0          
O        O      0.183500000000     0.996700000000     0.760400000000     0          
O        O      0.222000000000     0.937550000000     0.745933333333     0          
T        Si     0.277200000000     0.532900000000     0.779066666667     0          
T        Si     0.332800000000     0.976750000000     0.946500000000     0          
T        Si     0.417200000000     0.532100000000     0.695433333333     0          
O        O      0.565700000000     0.315700000000     0.000000000000     0          
O        O      0.540150000000     0.375000000000     0.038600000000     0          
O        O      0.938900000000     0.438900000000     0.279200000000     0          
O        O      0.995450000000     0.421400000000     0.331433333333     0          
O        O      0.969300000000     0.375000000000     0.269000000000     0          
O        O      0.960200000000     0.210200000000     0.166666666667     0          
O        O      0.996700000000     0.183500000000     0.093733333333     0          
O        O      0.937550000000     0.222000000000     0.079266666667     0          
O        O      0.996200000000     0.253800000000     0.110000000000     0          
T        Si     0.532900000000     0.277200000000     0.112400000000     0          
T        Si     0.976750000000     0.332800000000     0.279833333333     0          
T        Si     0.532100000000     0.417200000000     0.028766666667     0          
O        O      0.934300000000     0.065700000000     0.000000000000     0          
O        O      0.875000000000     0.040150000000     0.038600000000     0          
O        O      0.811100000000     0.438900000000     0.279200000000     0          
O        O      0.828600000000     0.495450000000     0.331433333333     0          
O        O      0.875000000000     0.469300000000     0.269000000000     0          
O        O      0.539800000000     0.460200000000     0.166666666667     0          
O        O      0.566500000000     0.496700000000     0.093733333333     0          
O        O      0.528000000000     0.437550000000     0.079266666667     0          
O        O      0.996200000000     0.496200000000     0.110000000000     0          
T        Si     0.972800000000     0.032900000000     0.112400000000     0          
T        Si     0.917200000000     0.476750000000     0.279833333333     0          
T        Si     0.832800000000     0.032100000000     0.028766666667     0          
O        O      0.684300000000     0.434300000000     0.000000000000     0          
O        O      0.709850000000     0.375000000000     0.038600000000     0          
O        O      0.811100000000     0.311100000000     0.279200000000     0          
O        O      0.754550000000     0.328600000000     0.331433333333     0          
O        O      0.780700000000     0.375000000000     0.269000000000     0          
O        O      0.789800000000     0.039800000000     0.166666666667     0          
O        O      0.753300000000     0.066500000000     0.093733333333     0          
O        O      0.812450000000     0.028000000000     0.079266666667     0          
O        O      0.753800000000     0.496200000000     0.110000000000     0          
T        Si     0.717100000000     0.472800000000     0.112400000000     0          
T        Si     0.773250000000     0.417200000000     0.279833333333     0          
T        Si     0.717900000000     0.332800000000     0.028766666667     0          
O        O      0.815700000000     0.184300000000     0.000000000000     0          
O        O      0.875000000000     0.209850000000     0.038600000000     0          
O        O      0.938900000000     0.311100000000     0.279200000000     0          
O        O      0.921400000000     0.254550000000     0.331433333333     0          
O        O      0.875000000000     0.280700000000     0.269000000000     0          
O        O      0.710200000000     0.289800000000     0.166666666667     0          
O        O      0.683500000000     0.253300000000     0.093733333333     0          
O        O      0.722000000000     0.312450000000     0.079266666667     0          
O        O      0.753800000000     0.253800000000     0.110000000000     0          
T        Si     0.777200000000     0.217100000000     0.112400000000     0          
T        Si     0.832800000000     0.273250000000     0.279833333333     0          
T        Si     0.917200000000     0.217900000000     0.028766666667     0          
O        O      0.790150000000     0.125000000000     0.294733333333     0          
O        O      0.688900000000     0.061100000000     0.054133333333     0          
O        O      0.745450000000     0.078600000000     0.001900000000     0          
O        O      0.719300000000     0.125000000000     0.064333333333     0          
O        O      0.746700000000     0.316500000000     0.239600000000     0          
O        O      0.687550000000     0.278000000000     0.254066666667     0          
O        O      0.746200000000     0.246200000000     0.223333333333     0          
T        Si     0.782900000000     0.222800000000     0.220933333333     0          
T        Si     0.726750000000     0.167200000000     0.053500000000     0          
T        Si     0.782100000000     0.082800000000     0.304566666667     0          
O        O      0.625000000000     0.290150000000     0.294733333333     0          
O        O      0.688900000000     0.188900000000     0.054133333333     0          
O        O      0.671400000000     0.245450000000     0.001900000000     0          
O        O      0.625000000000     0.219300000000     0.064333333333     0          
O        O      0.933500000000     0.246700000000     0.239600000000     0          
O        O      0.972000000000     0.187550000000     0.254066666667     0          
O        O      0.503800000000     0.246200000000     0.223333333333     0          
T        Si     0.527200000000     0.282900000000     0.220933333333     0          
T        Si     0.582800000000     0.226750000000     0.053500000000     0          
T        Si     0.667200000000     0.282100000000     0.304566666667     0          
O        O      0.959850000000     0.125000000000     0.294733333333     0          
O        O      0.561100000000     0.188900000000     0.054133333333     0          
O        O      0.504550000000     0.171400000000     0.001900000000     0          
O        O      0.530700000000     0.125000000000     0.064333333333     0          
O        O      0.503300000000     0.433500000000     0.239600000000     0          
O        O      0.562450000000     0.472000000000     0.254066666667     0          
O        O      0.503800000000     0.003800000000     0.223333333333     0          
T        Si     0.967100000000     0.027200000000     0.220933333333     0          
T        Si     0.523250000000     0.082800000000     0.053500000000     0          
T        Si     0.967900000000     0.167200000000     0.304566666667     0          
O        O      0.625000000000     0.459850000000     0.294733333333     0          
O        O      0.561100000000     0.061100000000     0.054133333333     0          
O        O      0.578600000000     0.004550000000     0.001900000000     0          
O        O      0.625000000000     0.030700000000     0.064333333333     0          
O        O      0.816500000000     0.003300000000     0.239600000000     0          
O        O      0.778000000000     0.062450000000     0.254066666667     0          
O        O      0.746200000000     0.003800000000     0.223333333333     0          
T        Si     0.722800000000     0.467100000000     0.220933333333     0          
T        Si     0.667200000000     0.023250000000     0.053500000000     0          
T        Si     0.582800000000     0.467900000000     0.304566666667     0          
O        O      0.934300000000     0.184300000000     0.000000000000     0          
O        O      0.504550000000     0.078600000000     0.001900000000     0          
O        O      0.539800000000     0.289800000000     0.166666666667     0          
O        O      0.503300000000     0.316500000000     0.239600000000     0          
O        O      0.562450000000     0.278000000000     0.254066666667     0          
T        Si     0.967100000000     0.222800000000     0.220933333333     0          
T        Si     0.523250000000     0.167200000000     0.053500000000     0          
T        Si     0.967900000000     0.082800000000     0.304566666667     0          
O        O      0.565700000000     0.434300000000     0.000000000000     0          
O        O      0.671400000000     0.004550000000     0.001900000000     0          
O        O      0.960200000000     0.039800000000     0.166666666667     0          
O        O      0.933500000000     0.003300000000     0.239600000000     0          
O        O      0.972000000000     0.062450000000     0.254066666667     0          
T        Si     0.527200000000     0.467100000000     0.220933333333     0          
T        Si     0.582800000000     0.023250000000     0.053500000000     0          
T        Si     0.667200000000     0.467900000000     0.304566666667     0          
O        O      0.815700000000     0.065700000000     0.000000000000     0          
O        O      0.745450000000     0.171400000000     0.001900000000     0          
O        O      0.710200000000     0.460200000000     0.166666666667     0          
O        O      0.746700000000     0.433500000000     0.239600000000     0          
O        O      0.687550000000     0.472000000000     0.254066666667     0          
T        Si     0.782900000000     0.027200000000     0.220933333333     0          
T        Si     0.726750000000     0.082800000000     0.053500000000     0          
T        Si     0.782100000000     0.167200000000     0.304566666667     0          
O        O      0.684300000000     0.315700000000     0.000000000000     0          
O        O      0.578600000000     0.245450000000     0.001900000000     0          
O        O      0.789800000000     0.210200000000     0.166666666667     0          
O        O      0.816500000000     0.246700000000     0.239600000000     0          
O        O      0.778000000000     0.187550000000     0.254066666667     0          
T        Si     0.722800000000     0.282900000000     0.220933333333     0          
T        Si     0.667200000000     0.226750000000     0.053500000000     0          
T        Si     0.582800000000     0.282100000000     0.304566666667     0          
O        O      0.754550000000     0.421400000000     0.331433333333     0          
O        O      0.753300000000     0.183500000000     0.093733333333     0          
O        O      0.812450000000     0.222000000000     0.079266666667     0          
T        Si     0.717100000000     0.277200000000     0.112400000000     0          
T        Si     0.773250000000     0.332800000000     0.279833333333     0          
T        Si     0.717900000000     0.417200000000     0.028766666667     0          
O        O      0.828600000000     0.254550000000     0.331433333333     0          
O        O      0.566500000000     0.253300000000     0.093733333333     0          
O        O      0.528000000000     0.312450000000     0.079266666667     0          
T        Si     0.972800000000     0.217100000000     0.112400000000     0          
T        Si     0.917200000000     0.273250000000     0.279833333333     0          
T        Si     0.832800000000     0.217900000000     0.028766666667     0          
O        O      0.995450000000     0.328600000000     0.331433333333     0          
O        O      0.996700000000     0.066500000000     0.093733333333     0          
O        O      0.937550000000     0.028000000000     0.079266666667     0          
T        Si     0.532900000000     0.472800000000     0.112400000000     0          
T        Si     0.976750000000     0.417200000000     0.279833333333     0          
T        Si     0.532100000000     0.332800000000     0.028766666667     0          
O        O      0.921400000000     0.495450000000     0.331433333333     0          
O        O      0.683500000000     0.496700000000     0.093733333333     0          
O        O      0.722000000000     0.437550000000     0.079266666667     0          
T        Si     0.777200000000     0.032900000000     0.112400000000     0          
T        Si     0.832800000000     0.476750000000     0.279833333333     0          
T        Si     0.917200000000     0.032100000000     0.028766666667     0          
O        O      0.565700000000     0.315700000000     0.333333333333     0          
O        O      0.540150000000     0.375000000000     0.371933333333     0          
O        O      0.938900000000     0.438900000000     0.612533333333     0          
O        O      0.995450000000     0.421400000000     0.664766666667     0          
O        O      0.969300000000     0.375000000000     0.602333333333     0          
O        O      0.960200000000     0.210200000000     0.500000000000     0          
O        O      0.996700000000     0.183500000000     0.427066666667     0          
O        O      0.937550000000     0.222000000000     0.412600000000     0          
O        O      0.996200000000     0.253800000000     0.443333333333     0          
T        Si     0.532900000000     0.277200000000     0.445733333333     0          
T        Si     0.976750000000     0.332800000000     0.613166666667     0          
T        Si     0.532100000000     0.417200000000     0.362100000000     0          
O        O      0.934300000000     0.065700000000     0.333333333333     0          
O        O      0.875000000000     0.040150000000     0.371933333333     0          
O        O      0.811100000000     0.438900000000     0.612533333333     0          
O        O      0.828600000000     0.495450000000     0.664766666667     0          
O        O      0.875000000000     0.469300000000     0.602333333333     0          
O        O      0.539800000000     0.460200000000     0.500000000000     0          
O        O      0.566500000000     0.496700000000     0.427066666667     0          
O        O      0.528000000000     0.437550000000     0.412600000000     0          
O        O      0.996200000000     0.496200000000     0.443333333333     0          
T        Si     0.972800000000     0.032900000000     0.445733333333     0          
T        Si     0.917200000000     0.476750000000     0.613166666667     0          
T        Si     0.832800000000     0.032100000000     0.362100000000     0          
O        O      0.684300000000     0.434300000000     0.333333333333     0          
O        O      0.709850000000     0.375000000000     0.371933333333     0          
O        O      0.811100000000     0.311100000000     0.612533333333     0          
O        O      0.754550000000     0.328600000000     0.664766666667     0          
O        O      0.780700000000     0.375000000000     0.602333333333     0          
O        O      0.789800000000     0.039800000000     0.500000000000     0          
O        O      0.753300000000     0.066500000000     0.427066666667     0          
O        O      0.812450000000     0.028000000000     0.412600000000     0          
O        O      0.753800000000     0.496200000000     0.443333333333     0          
T        Si     0.717100000000     0.472800000000     0.445733333333     0          
T        Si     0.773250000000     0.417200000000     0.613166666667     0          
T        Si     0.717900000000     0.332800000000     0.362100000000     0          
O        O      0.815700000000     0.184300000000     0.333333333333     0          
O        O      0.875000000000     0.209850000000     0.371933333333     0          
O        O      0.938900000000     0.311100000000     0.612533333333     0          
O        O      0.921400000000     0.254550000000     0.664766666667     0          
O        O      0.875000000000     0.280700000000     0.602333333333     0          
O        O      0.710200000000     0.289800000000     0.500000000000     0          
O        O      0.683500000000     0.253300000000     0.427066666667     0          
O        O      0.722000000000     0.312450000000     0.412600000000     0          
O        O      0.753800000000     0.253800000000     0.443333333333     0          
T        Si     0.777200000000     0.217100000000     0.445733333333     0          
T        Si     0.832800000000     0.273250000000     0.613166666667     0          
T        Si     0.917200000000     0.217900000000     0.362100000000     0          
O        O      0.790150000000     0.125000000000     0.628066666667     0          
O        O      0.688900000000     0.061100000000     0.387466666667     0          
O        O      0.745450000000     0.078600000000     0.335233333333     0          
O        O      0.719300000000     0.125000000000     0.397666666667     0          
O        O      0.746700000000     0.316500000000     0.572933333333     0          
O        O      0.687550000000     0.278000000000     0.587400000000     0          
O        O      0.746200000000     0.246200000000     0.556666666667     0          
T        Si     0.782900000000     0.222800000000     0.554266666667     0          
T        Si     0.726750000000     0.167200000000     0.386833333333     0          
T        Si     0.782100000000     0.082800000000     0.637900000000     0          
O        O      0.625000000000     0.290150000000     0.628066666667     0          
O        O      0.688900000000     0.188900000000     0.387466666667     0          
O        O      0.671400000000     0.245450000000     0.335233333333     0          
O        O      0.625000000000     0.219300000000     0.397666666667     0          
O        O      0.933500000000     0.246700000000     0.572933333333     0          
O        O      0.972000000000     0.187550000000     0.587400000000     0          
O        O      0.503800000000     0.246200000000     0.556666666667     0          
T        Si     0.527200000000     0.282900000000     0.554266666667     0          
T        Si     0.582800000000     0.226750000000     0.386833333333     0          
T        Si     0.667200000000     0.282100000000     0.637900000000     0          
O        O      0.959850000000     0.125000000000     0.628066666667     0          
O        O      0.561100000000     0.188900000000     0.387466666667     0          
O        O      0.504550000000     0.171400000000     0.335233333333     0          
O        O      0.530700000000     0.125000000000     0.397666666667     0          
O        O      0.503300000000     0.433500000000     0.572933333333     0          
O        O      0.562450000000     0.472000000000     0.587400000000     0          
O        O      0.503800000000     0.003800000000     0.556666666667     0          
T        Si     0.967100000000     0.027200000000     0.554266666667     0          
T        Si     0.523250000000     0.082800000000     0.386833333333     0          
T        Si     0.967900000000     0.167200000000     0.637900000000     0          
O        O      0.625000000000     0.459850000000     0.628066666667     0          
O        O      0.561100000000     0.061100000000     0.387466666667     0          
O        O      0.578600000000     0.004550000000     0.335233333333     0          
O        O      0.625000000000     0.030700000000     0.397666666667     0          
O        O      0.816500000000     0.003300000000     0.572933333333     0          
O        O      0.778000000000     0.062450000000     0.587400000000     0          
O        O      0.746200000000     0.003800000000     0.556666666667     0          
T        Si     0.722800000000     0.467100000000     0.554266666667     0          
T        Si     0.667200000000     0.023250000000     0.386833333333     0          
T        Si     0.582800000000     0.467900000000     0.637900000000     0          
O        O      0.934300000000     0.184300000000     0.333333333333     0          
O        O      0.504550000000     0.078600000000     0.335233333333     0          
O        O      0.539800000000     0.289800000000     0.500000000000     0          
O        O      0.503300000000     0.316500000000     0.572933333333     0          
O        O      0.562450000000     0.278000000000     0.587400000000     0          
T        Si     0.967100000000     0.222800000000     0.554266666667     0          
T        Si     0.523250000000     0.167200000000     0.386833333333     0          
T        Si     0.967900000000     0.082800000000     0.637900000000     0          
O        O      0.565700000000     0.434300000000     0.333333333333     0          
O        O      0.671400000000     0.004550000000     0.335233333333     0          
O        O      0.960200000000     0.039800000000     0.500000000000     0          
O        O      0.933500000000     0.003300000000     0.572933333333     0          
O        O      0.972000000000     0.062450000000     0.587400000000     0          
T        Si     0.527200000000     0.467100000000     0.554266666667     0          
T        Si     0.582800000000     0.023250000000     0.386833333333     0          
T        Si     0.667200000000     0.467900000000     0.637900000000     0          
O        O      0.815700000000     0.065700000000     0.333333333333     0          
O        O      0.745450000000     0.171400000000     0.335233333333     0          
O        O      0.710200000000     0.460200000000     0.500000000000     0          
O        O      0.746700000000     0.433500000000     0.572933333333     0          
O        O      0.687550000000     0.472000000000     0.587400000000     0          
T        Si     0.782900000000     0.027200000000     0.554266666667     0          
T        Si     0.726750000000     0.082800000000     0.386833333333     0          
T        Si     0.782100000000     0.167200000000     0.637900000000     0          
O        O      0.684300000000     0.315700000000     0.333333333333     0          
O        O      0.578600000000     0.245450000000     0.335233333333     0          
O        O      0.789800000000     0.210200000000     0.500000000000     0          
O        O      0.816500000000     0.246700000000     0.572933333333     0          
O        O      0.778000000000     0.187550000000     0.587400000000     0          
T        Si     0.722800000000     0.282900000000     0.554266666667     0          
T        Si     0.667200000000     0.226750000000     0.386833333333     0          
T        Si     0.582800000000     0.282100000000     0.637900000000     0          
O        O      0.754550000000     0.421400000000     0.664766666667     0          
O        O      0.753300000000     0.183500000000     0.427066666667     0          
O        O      0.812450000000     0.222000000000     0.412600000000     0          
T        Si     0.717100000000     0.277200000000     0.445733333333     0          
T        Si     0.773250000000     0.332800000000     0.613166666667     0          
T        Si     0.717900000000     0.417200000000     0.362100000000     0          
O        O      0.828600000000     0.254550000000     0.664766666667     0          
O        O      0.566500000000     0.253300000000     0.427066666667     0          
O        O      0.528000000000     0.312450000000     0.412600000000     0          
T        Si     0.972800000000     0.217100000000     0.445733333333     0          
T        Si     0.917200000000     0.273250000000     0.613166666667     0          
T        Si     0.832800000000     0.217900000000     0.362100000000     0          
O        O      0.995450000000     0.328600000000     0.664766666667     0          
O        O      0.996700000000     0.066500000000     0.427066666667     0          
O        O      0.937550000000     0.028000000000     0.412600000000     0          
T        Si     0.532900000000     0.472800000000     0.445733333333     0          
T        Si     0.976750000000     0.417200000000     0.613166666667     0          
T        Si     0.532100000000     0.332800000000     0.362100000000     0          
O        O      0.921400000000     0.495450000000     0.664766666667     0          
O        O      0.683500000000     0.496700000000     0.427066666667     0          
O        O      0.722000000000     0.437550000000     0.412600000000     0          
T        Si     0.777200000000     0.032900000000     0.445733333333     0          
T        Si     0.832800000000     0.476750000000     0.613166666667     0          
T        Si     0.917200000000     0.032100000000     0.362100000000     0          
O        O      0.565700000000     0.315700000000     0.666666666667     0          
O        O      0.540150000000     0.375000000000     0.705266666667     0          
O        O      0.938900000000     0.438900000000     0.945866666667     0          
O        O      0.995450000000     0.421400000000     0.998100000000     0          
O        O      0.969300000000     0.375000000000     0.935666666667     0          
O        O      0.960200000000     0.210200000000     0.833333333333     0          
O        O      0.996700000000     0.183500000000     0.760400000000     0          
O        O      0.937550000000     0.222000000000     0.745933333333     0          
O        O      0.996200000000     0.253800000000     0.776666666667     0          
T        Si     0.532900000000     0.277200000000     0.779066666667     0          
T        Si     0.976750000000     0.332800000000     0.946500000000     0          
T        Si     0.532100000000     0.417200000000     0.695433333333     0          
O        O      0.934300000000     0.065700000000     0.666666666667     0          
O        O      0.875000000000     0.040150000000     0.705266666667     0          
O        O      0.811100000000     0.438900000000     0.945866666667     0          
O        O      0.828600000000     0.495450000000     0.998100000000     0          
O        O      0.875000000000     0.469300000000     0.935666666667     0          
O        O      0.539800000000     0.460200000000     0.833333333333     0          
O        O      0.566500000000     0.496700000000     0.760400000000     0          
O        O      0.528000000000     0.437550000000     0.745933333333     0          
O        O      0.996200000000     0.496200000000     0.776666666667     0          
T        Si     0.972800000000     0.032900000000     0.779066666667     0          
T        Si     0.917200000000     0.476750000000     0.946500000000     0          
T        Si     0.832800000000     0.032100000000     0.695433333333     0          
O        O      0.684300000000     0.434300000000     0.666666666667     0          
O        O      0.709850000000     0.375000000000     0.705266666667     0          
O        O      0.811100000000     0.311100000000     0.945866666667     0          
O        O      0.754550000000     0.328600000000     0.998100000000     0          
O        O      0.780700000000     0.375000000000     0.935666666667     0          
O        O      0.789800000000     0.039800000000     0.833333333333     0          
O        O      0.753300000000     0.066500000000     0.760400000000     0          
O        O      0.812450000000     0.028000000000     0.745933333333     0          
O        O      0.753800000000     0.496200000000     0.776666666667     0          
T        Si     0.717100000000     0.472800000000     0.779066666667     0          
T        Si     0.773250000000     0.417200000000     0.946500000000     0          
T        Si     0.717900000000     0.332800000000     0.695433333333     0          
O        O      0.815700000000     0.184300000000     0.666666666667     0          
O        O      0.875000000000     0.209850000000     0.705266666667     0          
O        O      0.938900000000     0.311100000000     0.945866666667     0          
O        O      0.921400000000     0.254550000000     0.998100000000     0          
O        O      0.875000000000     0.280700000000     0.935666666667     0          
O        O      0.710200000000     0.289800000000     0.833333333333     0          
O        O      0.683500000000     0.253300000000     0.760400000000     0          
O        O      0.722000000000     0.312450000000     0.745933333333     0          
O        O      0.753800000000     0.253800000000     0.776666666667     0          
T        Si     0.777200000000     0.217100000000     0.779066666667     0          
T        Si     0.832800000000     0.273250000000     0.946500000000     0          
T        Si     0.917200000000     0.217900000000     0.695433333333     0          
O        O      0.790150000000     0.125000000000     0.961400000000     0          
O        O      0.688900000000     0.061100000000     0.720800000000     0          
O        O      0.745450000000     0.078600000000     0.668566666667     0          
O        O      0.719300000000     0.125000000000     0.731000000000     0          
O        O      0.746700000000     0.316500000000     0.906266666667     0          
O        O      0.687550000000     0.278000000000     0.920733333333     0          
O        O      0.746200000000     0.246200000000     0.890000000000     0          
T        Si     0.782900000000     0.222800000000     0.887600000000     0          
T        Si     0.726750000000     0.167200000000     0.720166666667     0          
T        Si     0.782100000000     0.082800000000     0.971233333333     0          
O        O      0.625000000000     0.290150000000     0.961400000000     0          
O        O      0.688900000000     0.188900000000     0.720800000000     0          
O        O      0.671400000000     0.245450000000     0.668566666667     0          
O        O      0.625000000000     0.219300000000     0.731000000000     0          
O        O      0.933500000000     0.246700000000     0.906266666667     0          
O        O      0.972000000000     0.187550000000     0.920733333333     0          
O        O      0.503800000000     0.246200000000     0.890000000000     0          
T        Si     0.527200000000     0.282900000000     0.887600000000     0          
T        Si     0.582800000000     0.226750000000     0.720166666667     0          
T        Si     0.667200000000     0.282100000000     0.971233333333     0          
O        O      0.959850000000     0.125000000000     0.961400000000     0          
O        O      0.561100000000     0.188900000000     0.720800000000     0          
O        O      0.504550000000     0.171400000000     0.668566666667     0          
O        O      0.530700000000     0.125000000000     0.731000000000     0          
O        O      0.503300000000     0.433500000000     0.906266666667     0          
O        O      0.562450000000     0.472000000000     0.920733333333     0          
O        O      0.503800000000     0.003800000000     0.890000000000     0          
T        Si     0.967100000000     0.027200000000     0.887600000000     0          
T        Si     0.523250000000     0.082800000000     0.720166666667     0          
T        Si     0.967900000000     0.167200000000     0.971233333333     0          
O        O      0.625000000000     0.459850000000     0.961400000000     0          
O        O      0.561100000000     0.061100000000     0.720800000000     0          
O        O      0.578600000000     0.004550000000     0.668566666667     0          
O        O      0.625000000000     0.030700000000     0.731000000000     0          
O        O      0.816500000000     0.003300000000     0.906266666667     0          
O        O      0.778000000000     0.062450000000     0.920733333333     0          
O        O      0.746200000000     0.003800000000     0.890000000000     0          
T        Si     0.722800000000     0.467100000000     0.887600000000     0          
T        Si     0.667200000000     0.023250000000     0.720166666667     0          
T        Si     0.582800000000     0.467900000000     0.971233333333     0          
O        O      0.934300000000     0.184300000000     0.666666666667     0          
O        O      0.504550000000     0.078600000000     0.668566666667     0          
O        O      0.539800000000     0.289800000000     0.833333333333     0          
O        O      0.503300000000     0.316500000000     0.906266666667     0          
O        O      0.562450000000     0.278000000000     0.920733333333     0          
T        Si     0.967100000000     0.222800000000     0.887600000000     0          
T        Si     0.523250000000     0.167200000000     0.720166666667     0          
T        Si     0.967900000000     0.082800000000     0.971233333333     0          
O        O      0.565700000000     0.434300000000     0.666666666667     0          
O        O      0.671400000000     0.004550000000     0.668566666667     0          
O        O      0.960200000000     0.039800000000     0.833333333333     0          
O        O      0.933500000000     0.003300000000     0.906266666667     0          
O        O      0.972000000000     0.062450000000     0.920733333333     0          
T        Si     0.527200000000     0.467100000000     0.887600000000     0          
T        Si     0.582800000000     0.023250000000     0.720166666667     0          
T        Si     0.667200000000     0.467900000000     0.971233333333     0          
O        O      0.815700000000     0.065700000000     0.666666666667     0          
O        O      0.745450000000     0.171400000000     0.668566666667     0          
O        O      0.710200000000     0.460200000000     0.833333333333     0          
O        O      0.746700000000     0.433500000000     0.906266666667     0          
O        O      0.687550000000     0.472000000000     0.920733333333     0          
T        Si     0.782900000000     0.027200000000     0.887600000000     0          
T        Si     0.726750000000     0.082800000000     0.720166666667     0          
T        Si     0.782100000000     0.167200000000     0.971233333333     0          
O        O      0.684300000000     0.315700000000     0.666666666667     0          
O        O      0.578600000000     0.245450000000     0.668566666667     0          
O        O      0.789800000000     0.210200000000     0.833333333333     0          
O        O      0.816500000000     0.246700000000     0.906266666667     0          
O        O      0.778000000000     0.187550000000     0.920733333333     0          
T        Si     0.722800000000     0.282900000000     0.887600000000     0          
T        Si     0.667200000000     0.226750000000     0.720166666667     0          
T        Si     0.582800000000     0.282100000000     0.971233333333     0          
O        O      0.754550000000     0.421400000000     0.998100000000     0          
O        O      0.753300000000     0.183500000000     0.760400000000     0          
O        O      0.812450000000     0.222000000000     0.745933333333     0          
T        Si     0.717100000000     0.277200000000     0.779066666667     0          
T        Si     0.773250000000     0.332800000000     0.946500000000     0          
T        Si     0.717900000000     0.417200000000     0.695433333333     0          
O        O      0.828600000000     0.254550000000     0.998100000000     0          
O        O      0.566500000000     0.253300000000     0.760400000000     0          
O        O      0.528000000000     0.312450000000     0.745933333333     0          
T        Si     0.972800000000     0.217100000000     0.779066666667     0          
T        Si     0.917200000000     0.273250000000     0.946500000000     0          
T        Si     0.832800000000     0.217900000000     0.695433333333     0          
O        O      0.995450000000     0.328600000000     0.998100000000     0          
O        O      0.996700000000     0.066500000000     0.760400000000     0          
O        O      0.937550000000     0.028000000000     0.745933333333     0          
T        Si     0.532900000000     0.472800000000     0.779066666667     0          
T        Si     0.976750000000     0.417200000000     0.946500000000     0          
T        Si     0.532100000000     0.332800000000     0.695433333333     0          
O        O      0.921400000000     0.495450000000     0.998100000000     0          
O        O      0.683500000000     0.496700000000     0.760400000000     0          
O        O      0.722000000000     0.437550000000     0.745933333333     0          
T        Si     0.777200000000     0.032900000000     0.779066666667     0          
T        Si     0.832800000000     0.476750000000     0.946500000000     0          
T        Si     0.917200000000     0.032100000000     0.695433333333     0          
O        O      0.565700000000     0.815700000000     0.000000000000     0          
O        O      0.540150000000     0.875000000000     0.038600000000     0          
O        O      0.938900000000     0.938900000000     0.279200000000     0          
O        O      0.995450000000     0.921400000000     0.331433333333     0          
O        O      0.969300000000     0.875000000000     0.269000000000     0          
O        O      0.960200000000     0.710200000000     0.166666666667     0          
O        O      0.996700000000     0.683500000000     0.093733333333     0          
O        O      0.937550000000     0.722000000000     0.079266666667     0          
O        O      0.996200000000     0.753800000000     0.110000000000     0          
T        Si     0.532900000000     0.777200000000     0.112400000000     0          
T        Si     0.976750000000     0.832800000000     0.279833333333     0          
T        Si     0.532100000000     0.917200000000     0.028766666667     0          
O        O      0.934300000000     0.565700000000     0.000000000000     0          
O        O      0.875000000000     0.540150000000     0.038600000000     0          
O        O      0.811100000000     0.938900000000     0.279200000000     0          
O        O      0.828600000000     0.995450000000     0.331433333333     0          
O        O      0.875000000000     0.969300000000     0.269000000000     0          
O        O      0.539800000000     0.960200000000     0.166666666667     0          
O        O      0.566500000000     0.996700000000     0.093733333333     0          
O        O      0.528000000000     0.937550000000     0.079266666667     0          
O        O      0.996200000000     0.996200000000     0.110000000000     0          
T        Si     0.972800000000     0.532900000000     0.112400000000     0          
T        Si     0.917200000000     0.976750000000     0.279833333333     0          
T        Si     0.832800000000     0.532100000000     0.028766666667     0          
O        O      0.684300000000     0.934300000000     0.000000000000     0          
O        O      0.709850000000     0.875000000000     0.038600000000     0          
O        O      0.811100000000     0.811100000000     0.279200000000     0          
O        O      0.754550000000     0.828600000000     0.331433333333     0          
O        O      0.780700000000     0.875000000000     0.269000000000     0          
O        O      0.789800000000     0.539800000000     0.166666666667     0          
O        O      0.753300000000     0.566500000000     0.093733333333     0          
O        O      0.812450000000     0.528000000000     0.079266666667     0          
O        O      0.753800000000     0.996200000000     0.110000000000     0          
T        Si     0.717100000000     0.972800000000     0.112400000000     0          
T        Si     0.773250000000     0.917200000000     0.279833333333     0          
T        Si     0.717900000000     0.832800000000     0.028766666667     0          
O        O      0.815700000000     0.684300000000     0.000000000000     0          
O        O      0.875000000000     0.709850000000     0.038600000000     0          
O        O      0.938900000000     0.811100000000     0.279200000000     0          
O        O      0.921400000000     0.754550000000     0.331433333333     0          
O        O      0.875000000000     0.780700000000     0.269000000000     0          
O        O      0.710200000000     0.789800000000     0.166666666667     0          
O        O      0.683500000000     0.753300000000     0.093733333333     0          
O        O      0.722000000000     0.812450000000     0.079266666667     0          
O        O      0.753800000000     0.753800000000     0.110000000000     0          
T        Si     0.777200000000     0.717100000000     0.112400000000     0          
T        Si     0.832800000000     0.773250000000     0.279833333333     0          
T        Si     0.917200000000     0.717900000000     0.028766666667     0          
O        O      0.790150000000     0.625000000000     0.294733333333     0          
O        O      0.688900000000     0.561100000000     0.054133333333     0          
O        O      0.745450000000     0.578600000000     0.001900000000     0          
O        O      0.719300000000     0.625000000000     0.064333333333     0          
O        O      0.746700000000     0.816500000000     0.239600000000     0          
O        O      0.687550000000     0.778000000000     0.254066666667     0          
O        O      0.746200000000     0.746200000000     0.223333333333     0          
T        Si     0.782900000000     0.722800000000     0.220933333333     0          
T        Si     0.726750000000     0.667200000000     0.053500000000     0          
T        Si     0.782100000000     0.582800000000     0.304566666667     0          
O        O      0.625000000000     0.790150000000     0.294733333333     0          
O        O      0.688900000000     0.688900000000     0.054133333333     0          
O        O      0.671400000000     0.745450000000     0.001900000000     0          
O        O      0.625000000000     0.719300000000     0.064333333333     0          
O        O      0.933500000000     0.746700000000     0.239600000000     0          
O        O      0.972000000000     0.687550000000     0.254066666667     0          
O        O      0.503800000000     0.746200000000     0.223333333333     0          
T        Si     0.527200000000     0.782900000000     0.220933333333     0          
T        Si     0.582800000000     0.726750000000     0.053500000000     0          
T        Si     0.667200000000     0.782100000000     0.304566666667     0          
O        O      0.959850000000     0.625000000000     0.294733333333     0          
O        O      0.561100000000     0.688900000000     0.054133333333     0          
O        O      0.504550000000     0.671400000000     0.001900000000     0          
O        O      0.530700000000     0.625000000000     0.064333333333     0          
O        O      0.503300000000     0.933500000000     0.239600000000     0          
O        O      0.562450000000     0.972000000000     0.254066666667     0          
O        O      0.503800000000     0.503800000000     0.223333333333     0          
T        Si     0.967100000000     0.527200000000     0.220933333333     0          
T        Si     0.523250000000     0.582800000000     0.053500000000     0          
T        Si     0.967900000000     0.667200000000     0.304566666667     0          
O        O      0.625000000000     0.959850000000     0.294733333333     0          
O        O      0.561100000000     0.561100000000     0.054133333333     0          
O        O      0.578600000000     0.504550000000     0.001900000000     0          
O        O      0.625000000000     0.530700000000     0.064333333333     0          
O        O      0.816500000000     0.503300000000     0.239600000000     0          
O        O      0.778000000000     0.562450000000     0.254066666667     0          
O        O      0.746200000000     0.503800000000     0.223333333333     0          
T        Si     0.722800000000     0.967100000000     0.220933333333     0          
T        Si     0.667200000000     0.523250000000     0.053500000000     0          
T        Si     0.582800000000     0.967900000000     0.304566666667     0          
O        O      0.934300000000     0.684300000000     0.000000000000     0          
O        O      0.504550000000     0.578600000000     0.001900000000     0          
O        O      0.539800000000     0.789800000000     0.166666666667     0          
O        O      0.503300000000     0.816500000000     0.239600000000     0          
O        O      0.562450000000     0.778000000000     0.254066666667     0          
T        Si     0.967100000000     0.722800000000     0.220933333333     0          
T        Si     0.523250000000     0.667200000000     0.053500000000     0          
T        Si     0.967900000000     0.582800000000     0.304566666667     0          
O        O      0.565700000000     0.934300000000     0.000000000000     0          
O        O      0.671400000000     0.504550000000     0.001900000000     0          
O        O      0.960200000000     0.539800000000     0.166666666667     0          
O        O      0.933500000000     0.503300000000     0.239600000000     0          
O        O      0.972000000000     0.562450000000     0.254066666667     0          
T        Si     0.527200000000     0.967100000000     0.220933333333     0          
T        Si     0.582800000000     0.523250000000     0.053500000000     0          
T        Si     0.667200000000     0.967900000000     0.304566666667     0          
O        O      0.815700000000     0.565700000000     0.000000000000     0          
O        O      0.745450000000     0.671400000000     0.001900000000     0          
O        O      0.710200000000     0.960200000000     0.166666666667     0          
O        O      0.746700000000     0.933500000000     0.239600000000     0          
O        O      0.687550000000     0.972000000000     0.254066666667     0          
T        Si     0.782900000000     0.527200000000     0.220933333333     0          
T        Si     0.726750000000     0.582800000000     0.053500000000     0          
T        Si     0.782100000000     0.667200000000     0.304566666667     0          
O        O      0.684300000000     0.815700000000     0.000000000000     0          
O        O      0.578600000000     0.745450000000     0.001900000000     0          
O        O      0.789800000000     0.710200000000     0.166666666667     0          
O        O      0.816500000000     0.746700000000     0.239600000000     0          
O        O      0.778000000000     0.687550000000     0.254066666667     0          
T        Si     0.722800000000     0.782900000000     0.220933333333     0          
T        Si     0.667200000000     0.726750000000     0.053500000000     0          
T        Si     0.582800000000     0.782100000000     0.304566666667     0          
O        O      0.754550000000     0.921400000000     0.331433333333     0          
O        O      0.753300000000     0.683500000000     0.093733333333     0          
O        O      0.812450000000     0.722000000000     0.079266666667     0          
T        Si     0.717100000000     0.777200000000     0.112400000000     0          
T        Si     0.773250000000     0.832800000000     0.279833333333     0          
T        Si     0.717900000000     0.917200000000     0.028766666667     0          
O        O      0.828600000000     0.754550000000     0.331433333333     0          
O        O      0.566500000000     0.753300000000     0.093733333333     0          
O        O      0.528000000000     0.812450000000     0.079266666667     0          
T        Si     0.972800000000     0.717100000000     0.112400000000     0          
T        Si     0.917200000000     0.773250000000     0.279833333333     0          
T        Si     0.832800000000     0.717900000000     0.028766666667     0          
O        O      0.995450000000     0.828600000000     0.331433333333     0          
O        O      0.996700000000     0.566500000000     0.093733333333     0          
O        O      0.937550000000     0.528000000000     0.079266666667     0          
T        Si     0.532900000000     0.972800000000     0.112400000000     0          
T        Si     0.976750000000     0.917200000000     0.279833333333     0          
T        Si     0.532100000000     0.832800000000     0.028766666667     0          
O        O      0.921400000000     0.995450000000     0.331433333333     0          
O        O      0.683500000000     0.996700000000     0.093733333333     0          
O        O      0.722000000000     0.937550000000     0.079266666667     0          
T        Si     0.777200000000     0.532900000000     0.112400000000     0          
T        Si     0.832800000000     0.976750000000     0.279833333333     0          
T        Si     0.917200000000     0.532100000000     0.028766666667     0          
O        O      0.565700000000     0.815700000000     0.333333333333     0          
O        O      0.540150000000     0.875000000000     0.371933333333     0          
O        O      0.938900000000     0.938900000000     0.612533333333     0          
O        O      0.995450000000     0.921400000000     0.664766666667     0          
O        O      0.969300000000     0.875000000000     0.602333333333     0          
O        O      0.960200000000     0.710200000000     0.500000000000     0          
O        O      0.996700000000     0.683500000000     0.427066666667     0          
O        O      0.937550000000     0.722000000000     0.412600000000     0          
O        O      0.996200000000     0.753800000000     0.443333333333     0          
T        Si     0.532900000000     0.777200000000     0.445733333333     0          
T        Si     0.976750000000     0.832800000000     0.613166666667     0          
T        Si     0.532100000000     0.917200000000     0.362100000000     0          
O        O      0.934300000000     0.565700000000     0.333333333333     0          
O        O      0.875000000000     0.540150000000     0.371933333333     0          
O        O      0.811100000000     0.938900000000     0.612533333333     0          
O        O      0.828600000000     0.995450000000     0.664766666667     0          
O        O      0.875000000000     0.969300000000     0.602333333333     0          
O        O      0.539800000000     0.960200000000     0.500000000000     0          
O        O      0.566500000000     0.996700000000     0.427066666667     0          
O        O      0.528000000000     0.937550000000     0.412600000000     0          
O        O      0.996200000000     0.996200000000     0.443333333333     0          
T        Si     0.972800000000     0.532900000000     0.445733333333     0          
T        Si     0.917200000000     0.976750000000     0.613166666667     0          
T        Si     0.832800000000     0.532100000000     0.362100000000     0          
O        O      0.684300000000     0.934300000000     0.333333333333     0          
O        O      0.709850000000     0.875000000000     0.371933333333     0          
O        O      0.811100000000     0.811100000000     0.612533333333     0          
O        O      0.754550000000     0.828600000000     0.664766666667     0          
O        O      0.780700000000     0.875000000000     0.602333333333     0          
O        O      0.789800000000     0.539800000000     0.500000000000     0          
O        O      0.753300000000     0.566500000000     0.427066666667     0          
O        O      0.812450000000     0.528000000000     0.412600000000     0          
O        O      0.753800000000     0.996200000000     0.443333333333     0          
T        Si     0.717100000000     0.972800000000     0.445733333333     0          
T        Si     0.773250000000     0.917200000000     0.613166666667     0          
T        Si     0.717900000000     0.832800000000     0.362100000000     0          
O        O      0.815700000000     0.684300000000     0.333333333333     0          
O        O      0.875000000000     0.709850000000     0.371933333333     0          
O        O      0.938900000000     0.811100000000     0.612533333333     0          
O        O      0.921400000000     0.754550000000     0.664766666667     0          
O        O      0.875000000000     0.780700000000     0.602333333333     0          
O        O      0.710200000000     0.789800000000     0.500000000000     0          
O        O      0.683500000000     0.753300000000     0.427066666667     0          
O        O      0.722000000000     0.812450000000     0.412600000000     0          
O        O      0.753800000000     0.753800000000     0.443333333333     0          
T        Si     0.777200000000     0.717100000000     0.445733333333     0          
T        Si     0.832800000000     0.773250000000     0.613166666667     0          
T        Si     0.917200000000     0.717900000000     0.362100000000     0          
O        O      0.790150000000     0.625000000000     0.628066666667     0          
O        O      0.688900000000     0.561100000000     0.387466666667     0          
O        O      0.745450000000     0.578600000000     0.335233333333     0          
O        O      0.719300000000     0.625000000000     0.397666666667     0          
O        O      0.746700000000     0.816500000000     0.572933333333     0          
O        O      0.687550000000     0.778000000000     0.587400000000     0          
O        O      0.746200000000     0.746200000000     0.556666666667     0          
T        Si     0.782900000000     0.722800000000     0.554266666667     0          
T        Si     0.726750000000     0.667200000000     0.386833333333     0          
T        Si     0.782100000000     0.582800000000     0.637900000000     0          
O        O      0.625000000000     0.790150000000     0.628066666667     0          
O        O      0.688900000000     0.688900000000     0.387466666667     0          
O        O      0.671400000000     0.745450000000     0.335233333333     0          
O        O      0.625000000000     0.719300000000     0.397666666667     0          
O        O      0.933500000000     0.746700000000     0.572933333333     0          
O        O      0.972000000000     0.687550000000     0.587400000000     0          
O        O      0.503800000000     0.746200000000     0.556666666667     0          
T        Si     0.527200000000     0.782900000000     0.554266666667     0          
T        Si     0.582800000000     0.726750000000     0.386833333333     0          
T        Si     0.667200000000     0.782100000000     0.637900000000     0          
O        O      0.959850000000     0.625000000000     0.628066666667     0          
O        O      0.561100000000     0.688900000000     0.387466666667     0          
O        O      0.504550000000     0.671400000000     0.335233333333     0          
O        O      0.530700000000     0.625000000000     0.397666666667     0          
O        O      0.503300000000     0.933500000000     0.572933333333     0          
O        O      0.562450000000     0.972000000000     0.587400000000     0          
O        O      0.503800000000     0.503800000000     0.556666666667     0          
T        Si     0.967100000000     0.527200000000     0.554266666667     0          
T        Si     0.523250000000     0.582800000000     0.386833333333     0          
T        Si     0.967900000000     0.667200000000     0.637900000000     0          
O        O      0.625000000000     0.959850000000     0.628066666667     0          
O        O      0.561100000000     0.561100000000     0.387466666667     0          
O        O      0.578600000000     0.504550000000     0.335233333333     0          
O        O      0.625000000000     0.530700000000     0.397666666667     0          
O        O      0.816500000000     0.503300000000     0.572933333333     0          
O        O      0.778000000000     0.562450000000     0.587400000000     0          
O        O      0.746200000000     0.503800000000     0.556666666667     0          
T        Si     0.722800000000     0.967100000000     0.554266666667     0          
T        Si     0.667200000000     0.523250000000     0.386833333333     0          
T        Si     0.582800000000     0.967900000000     0.637900000000     0          
O        O      0.934300000000     0.684300000000     0.333333333333     0          
O        O      0.504550000000     0.578600000000     0.335233333333     0          
O        O      0.539800000000     0.789800000000     0.500000000000     0          
O        O      0.503300000000     0.816500000000     0.572933333333     0          
O        O      0.562450000000     0.778000000000     0.587400000000     0          
T        Si     0.967100000000     0.722800000000     0.554266666667     0          
T        Si     0.523250000000     0.667200000000     0.386833333333     0          
T        Si     0.967900000000     0.582800000000     0.637900000000     0          
O        O      0.565700000000     0.934300000000     0.333333333333     0          
O        O      0.671400000000     0.504550000000     0.335233333333     0          
O        O      0.960200000000     0.539800000000     0.500000000000     0          
O        O      0.933500000000     0.503300000000     0.572933333333     0          
O        O      0.972000000000     0.562450000000     0.587400000000     0          
T        Si     0.527200000000     0.967100000000     0.554266666667     0          
T        Si     0.582800000000     0.523250000000     0.386833333333     0          
T        Si     0.667200000000     0.967900000000     0.637900000000     0          
O        O      0.815700000000     0.565700000000     0.333333333333     0          
O        O      0.745450000000     0.671400000000     0.335233333333     0          
O        O      0.710200000000     0.960200000000     0.500000000000     0          
O        O      0.746700000000     0.933500000000     0.572933333333     0          
O        O      0.687550000000     0.972000000000     0.587400000000     0          
T        Si     0.782900000000     0.527200000000     0.554266666667     0          
T        Si     0.726750000000     0.582800000000     0.386833333333     0          
T        Si     0.782100000000     0.667200000000     0.637900000000     0          
O        O      0.684300000000     0.815700000000     0.333333333333     0          
O        O      0.578600000000     0.745450000000     0.335233333333     0          
O        O      0.789800000000     0.710200000000     0.500000000000     0          
O        O      0.816500000000     0.746700000000     0.572933333333     0          
O        O      0.778000000000     0.687550000000     0.587400000000     0          
T        Si     0.722800000000     0.782900000000     0.554266666667     0          
T        Si     0.667200000000     0.726750000000     0.386833333333     0          
T        Si     0.582800000000     0.782100000000     0.637900000000     0          
O        O      0.754550000000     0.921400000000     0.664766666667     0          
O        O      0.753300000000     0.683500000000     0.427066666667     0          
O        O      0.812450000000     0.722000000000     0.412600000000     0          
T        Si     0.717100000000     0.777200000000     0.445733333333     0          
T        Si     0.773250000000     0.832800000000     0.613166666667     0          
T        Si     0.717900000000     0.917200000000     0.362100000000     0          
O        O      0.828600000000     0.754550000000     0.664766666667     0          
O        O      0.566500000000     0.753300000000     0.427066666667     0          
O        O      0.528000000000     0.812450000000     0.412600000000     0          
T        Si     0.972800000000     0.717100000000     0.445733333333     0          
T        Si     0.917200000000     0.773250000000     0.613166666667     0          
T        Si     0.832800000000     0.717900000000     0.362100000000     0          
O        O      0.995450000000     0.828600000000     0.664766666667     0          
O        O      0.996700000000     0.566500000000     0.427066666667     0          
O        O      0.937550000000     0.528000000000     0.412600000000     0          
T        Si     0.532900000000     0.972800000000     0.445733333333     0          
T        Si     0.976750000000     0.917200000000     0.613166666667     0          
T        Si     0.532100000000     0.832800000000     0.362100000000     0          
O        O      0.921400000000     0.995450000000     0.664766666667     0          
O        O      0.683500000000     0.996700000000     0.427066666667     0          
O        O      0.722000000000     0.937550000000     0.412600000000     0          
T        Si     0.777200000000     0.532900000000     0.445733333333     0          
T        Si     0.832800000000     0.976750000000     0.613166666667     0          
T        Si     0.917200000000     0.532100000000     0.362100000000     0          
O        O      0.565700000000     0.815700000000     0.666666666667     0          
O        O      0.540150000000     0.875000000000     0.705266666667     0          
O        O      0.938900000000     0.938900000000     0.945866666667     0          
O        O      0.995450000000     0.921400000000     0.998100000000     0          
O        O      0.969300000000     0.875000000000     0.935666666667     0          
O        O      0.960200000000     0.710200000000     0.833333333333     0          
O        O      0.996700000000     0.683500000000     0.760400000000     0          
O        O      0.937550000000     0.722000000000     0.745933333333     0          
O        O      0.996200000000     0.753800000000     0.776666666667     0          
T        Si     0.532900000000     0.777200000000     0.779066666667     0          
T        Si     0.976750000000     0.832800000000     0.946500000000     0          
T        Si     0.532100000000     0.917200000000     0.695433333333     0          
O        O      0.934300000000     0.565700000000     0.666666666667     0          
O        O      0.875000000000     0.540150000000     0.705266666667     0          
O        O      0.811100000000     0.938900000000     0.945866666667     0          
O        O      0.828600000000     0.995450000000     0.998100000000     0          
O        O      0.875000000000     0.969300000000     0.935666666667     0          
O        O      0.539800000000     0.960200000000     0.833333333333     0          
O        O      0.566500000000     0.996700000000     0.760400000000     0          
O        O      0.528000000000     0.937550000000     0.745933333333     0          
O        O      0.996200000000     0.996200000000     0.776666666667     0          
T        Si     0.972800000000     0.532900000000     0.779066666667     0          
T        Si     0.917200000000     0.976750000000     0.946500000000     0          
T        Si     0.832800000000     0.532100000000     0.695433333333     0          
O        O      0.684300000000     0.934300000000     0.666666666667     0          
O        O      0.709850000000     0.875000000000     0.705266666667     0          
O        O      0.811100000000     0.811100000000     0.945866666667     0          
O        O      0.754550000000     0.828600000000     0.998100000000     0          
O        O      0.780700000000     0.875000000000     0.935666666667     0          
O        O      0.789800000000     0.539800000000     0.833333333333     0          
O        O      0.753300000000     0.566500000000     0.760400000000     0          
O        O      0.812450000000     0.528000000000     0.745933333333     0          
O        O      0.753800000000     0.996200000000     0.776666666667     0          
T        Si     0.717100000000     0.972800000000     0.779066666667     0          
T        Si     0.773250000000     0.917200000000     0.946500000000     0          
T        Si     0.717900000000     0.832800000000     0.695433333333     0          
O        O      0.815700000000     0.684300000000     0.666666666667     0          
O        O      0.875000000000     0.709850000000     0.705266666667     0          
O        O      0.938900000000     0.811100000000     0.945866666667     0          
O        O      0.921400000000     0.754550000000     0.998100000000     0          
O        O      0.875000000000     0.780700000000     0.935666666667     0          
O        O      0.710200000000     0.789800000000     0.833333333333     0          
O        O      0.683500000000     0.753300000000     0.760400000000     0          
O        O      0.722000000000     0.812450000000     0.745933333333     0          
O        O      0.753800000000     0.753800000000     0.776666666667     0          
T        Si     0.777200000000     0.717100000000     0.779066666667     0          
T        Si     0.832800000000     0.773250000000     0.946500000000     0          
T        Si     0.917200000000     0.717900000000     0.695433333333     0          
O        O      0.790150000000     0.625000000000     0.961400000000     0          
O        O      0.688900000000     0.561100000000     0.720800000000     0          
O        O      0.745450000000     0.578600000000     0.668566666667     0          
O        O      0.719300000000     0.625000000000     0.731000000000     0          
O        O      0.746700000000     0.816500000000     0.906266666667     0          
O        O      0.687550000000     0.778000000000     0.920733333333     0          
O        O      0.746200000000     0.746200000000     0.890000000000     0          
T        Si     0.782900000000     0.722800000000     0.887600000000     0          
T        Si     0.726750000000     0.667200000000     0.720166666667     0          
T        Si     0.782100000000     0.582800000000     0.971233333333     0          
O        O      0.625000000000     0.790150000000     0.961400000000     0          
O        O      0.688900000000     0.688900000000     0.720800000000     0          
O        O      0.671400000000     0.745450000000     0.668566666667     0          
O        O      0.625000000000     0.719300000000     0.731000000000     0          
O        O      0.933500000000     0.746700000000     0.906266666667     0          
O        O      0.972000000000     0.687550000000     0.920733333333     0          
O        O      0.503800000000     0.746200000000     0.890000000000     0          
T        Si     0.527200000000     0.782900000000     0.887600000000     0          
T        Si     0.582800000000     0.726750000000     0.720166666667     0          
T        Si     0.667200000000     0.782100000000     0.971233333333     0          
O        O      0.959850000000     0.625000000000     0.961400000000     0          
O        O      0.561100000000     0.688900000000     0.720800000000     0          
O        O      0.504550000000     0.671400000000     0.668566666667     0          
O        O      0.530700000000     0.625000000000     0.731000000000     0          
O        O      0.503300000000     0.933500000000     0.906266666667     0          
O        O      0.562450000000     0.972000000000     0.920733333333     0          
O        O      0.503800000000     0.503800000000     0.890000000000     0          
T        Si     0.967100000000     0.527200000000     0.887600000000     0          
T        Si     0.523250000000     0.582800000000     0.720166666667     0          
T        Si     0.967900000000     0.667200000000     0.971233333333     0          
O        O      0.625000000000     0.959850000000     0.961400000000     0          
O        O      0.561100000000     0.561100000000     0.720800000000     0          
O        O      0.578600000000     0.504550000000     0.668566666667     0          
O        O      0.625000000000     0.530700000000     0.731000000000     0          
O        O      0.816500000000     0.503300000000     0.906266666667     0          
O        O      0.778000000000     0.562450000000     0.920733333333     0          
O        O      0.746200000000     0.503800000000     0.890000000000     0          
T        Si     0.722800000000     0.967100000000     0.887600000000     0          
T        Si     0.667200000000     0.523250000000     0.720166666667     0          
T        Si     0.582800000000     0.967900000000     0.971233333333     0          
O        O      0.934300000000     0.684300000000     0.666666666667     0          
O        O      0.504550000000     0.578600000000     0.668566666667     0          
O        O      0.539800000000     0.789800000000     0.833333333333     0          
O        O      0.503300000000     0.816500000000     0.906266666667     0          
O        O      0.562450000000     0.778000000000     0.920733333333     0          
T        Si     0.967100000000     0.722800000000     0.887600000000     0          
T        Si     0.523250000000     0.667200000000     0.720166666667     0          
T        Si     0.967900000000     0.582800000000     0.971233333333     0          
O        O      0.565700000000     0.934300000000     0.666666666667     0          
O        O      0.671400000000     0.504550000000     0.668566666667     0          
O        O      0.960200000000     0.539800000000     0.833333333333     0          
O        O      0.933500000000     0.503300000000     0.906266666667     0          
O        O      0.972000000000     0.562450000000     0.920733333333     0          
T        Si     0.527200000000     0.967100000000     0.887600000000     0          
T        Si     0.582800000000     0.523250000000     0.720166666667     0          
T        Si     0.667200000000     0.967900000000     0.971233333333     0          
O        O      0.815700000000     0.565700000000     0.666666666667     0          
O        O      0.745450000000     0.671400000000     0.668566666667     0          
O        O      0.710200000000     0.960200000000     0.833333333333     0          
O        O      0.746700000000     0.933500000000     0.906266666667     0          
O        O      0.687550000000     0.972000000000     0.920733333333     0          
T        Si     0.782900000000     0.527200000000     0.887600000000     0          
T        Si     0.726750000000     0.582800000000     0.720166666667     0          
T        Si     0.782100000000     0.667200000000     0.971233333333     0          
O        O      0.684300000000     0.815700000000     0.666666666667     0          
O        O      0.578600000000     0.745450000000     0.668566666667     0          
O        O      0.789800000000     0.710200000000     0.833333333333     0          
O        O      0.816500000000     0.746700000000     0.906266666667     0          
O        O      0.778000000000     0.687550000000     0.920733333333     0          
T        Si     0.722800000000     0.782900000000     0.887600000000     0          
T        Si     0.667200000000     0.726750000000     0.720166666667     0          
T        Si     0.582800000000     0.782100000000     0.971233333333     0          
O        O      0.754550000000     0.921400000000     0.998100000000     0          
O        O      0.753300000000     0.683500000000     0.760400000000     0          
O        O      0.812450000000     0.722000000000     0.745933333333     0          
T        Si     0.717100000000     0.777200000000     0.779066666667     0          
T        Si     0.773250000000     0.832800000000     0.946500000000     0          
T        Si     0.717900000000     0.917200000000     0.695433333333     0          
O        O      0.828600000000     0.754550000000     0.998100000000     0          
O        O      0.566500000000     0.753300000000     0.760400000000     0          
O        O      0.528000000000     0.812450000000     0.745933333333     0          
T        Si     0.972800000000     0.717100000000     0.779066666667     0          
T        Si     0.917200000000     0.773250000000     0.946500000000     0          
T        Si     0.832800000000     0.717900000000     0.695433333333     0          
O        O      0.995450000000     0.828600000000     0.998100000000     0          
O        O      0.996700000000     0.566500000000     0.760400000000     0          
O        O      0.937550000000     0.528000000000     0.745933333333     0          
T        Si     0.532900000000     0.972800000000     0.779066666667     0          
T        Si     0.976750000000     0.917200000000     0.946500000000     0          
T        Si     0.532100000000     0.832800000000     0.695433333333     0          
O        O      0.921400000000     0.995450000000     0.998100000000     0          
O        O      0.683500000000     0.996700000000     0.760400000000     0          
O        O      0.722000000000     0.937550000000     0.745933333333     0          
T        Si     0.777200000000     0.532900000000     0.779066666667     0          
T        Si     0.832800000000     0.976750000000     0.946500000000     0          
T        Si     0.917200000000     0.532100000000     0.695433333333     0          


