data_zeolite

_audit_creation_method RASPA-1.0
_audit_creation_date 2021-1-20
_audit_author_name ''

_cell_length_a    36.252
_cell_length_b    36.252
_cell_length_c    30.268
_cell_angle_alpha 90
_cell_angle_beta  90
_cell_angle_gamma 120
_cell_volume      34449.1

_symmetry_cell_setting          hexagonal
_symmetry_space_group_name_Hall 'P 1'
_symmetry_space_group_name_H-M  'P 1'
_symmetry_Int_Tables_number     1

_symmetry_equiv_pos_as_xyz 'x,y,z'

loop_
_atom_site_label
_atom_site_type_symbol
_atom_site_fract_x
_atom_site_fract_y
_atom_site_fract_z
_atom_site_charge
O        O      0.132250000000     0.264450000000     0.055775000000     0          
O        O      0.054950000000     0.208100000000     0.081575000000     0          
O        O      0.074200000000     0.287100000000     0.065500000000     0          
O        O      0.068250000000     0.236800000000     0.000000000000     0          
O        O      0.000000000000     0.139850000000     0.125000000000     0          
O        O      0.081400000000     0.162800000000     0.125000000000     0          
T        Si     0.082400000000     0.249100000000     0.050750000000     0          
T        Si     0.047950000000     0.179700000000     0.125000000000     0          
O        O      0.367800000000     0.132250000000     0.055775000000     0          
O        O      0.346850000000     0.054950000000     0.081575000000     0          
O        O      0.287100000000     0.074200000000     0.065500000000     0          
O        O      0.331450000000     0.068250000000     0.000000000000     0          
O        O      0.360150000000     0.000000000000     0.125000000000     0          
O        O      0.418600000000     0.081400000000     0.125000000000     0          
T        Si     0.333300000000     0.082400000000     0.050750000000     0          
T        Si     0.368250000000     0.047950000000     0.125000000000     0          
O        O      0.235550000000     0.367800000000     0.055775000000     0          
O        O      0.291900000000     0.346850000000     0.081575000000     0          
O        O      0.212900000000     0.287100000000     0.065500000000     0          
O        O      0.263200000000     0.331450000000     0.000000000000     0          
O        O      0.360150000000     0.360150000000     0.125000000000     0          
O        O      0.337200000000     0.418600000000     0.125000000000     0          
T        Si     0.250900000000     0.333300000000     0.050750000000     0          
T        Si     0.320300000000     0.368250000000     0.125000000000     0          
O        O      0.367750000000     0.235550000000     0.055775000000     0          
O        O      0.445050000000     0.291900000000     0.081575000000     0          
O        O      0.425800000000     0.212900000000     0.065500000000     0          
O        O      0.431750000000     0.263200000000     0.000000000000     0          
O        O      0.000000000000     0.360150000000     0.125000000000     0          
O        O      0.418600000000     0.337200000000     0.125000000000     0          
T        Si     0.417600000000     0.250900000000     0.050750000000     0          
T        Si     0.452050000000     0.320300000000     0.125000000000     0          
O        O      0.132200000000     0.367750000000     0.055775000000     0          
O        O      0.153150000000     0.445050000000     0.081575000000     0          
O        O      0.212900000000     0.425800000000     0.065500000000     0          
O        O      0.168550000000     0.431750000000     0.000000000000     0          
O        O      0.139850000000     0.000000000000     0.125000000000     0          
O        O      0.081400000000     0.418600000000     0.125000000000     0          
T        Si     0.166700000000     0.417600000000     0.050750000000     0          
T        Si     0.131750000000     0.452050000000     0.125000000000     0          
O        O      0.264450000000     0.132200000000     0.055775000000     0          
O        O      0.208100000000     0.153150000000     0.081575000000     0          
O        O      0.287100000000     0.212900000000     0.065500000000     0          
O        O      0.236800000000     0.168550000000     0.000000000000     0          
O        O      0.139850000000     0.139850000000     0.125000000000     0          
O        O      0.162800000000     0.081400000000     0.125000000000     0          
T        Si     0.249100000000     0.166700000000     0.050750000000     0          
T        Si     0.179700000000     0.131750000000     0.125000000000     0          
O        O      0.235550000000     0.367750000000     0.194225000000     0          
O        O      0.291900000000     0.445050000000     0.168425000000     0          
O        O      0.212900000000     0.425800000000     0.184500000000     0          
O        O      0.263200000000     0.431750000000     0.000000000000     0          
T        Si     0.250900000000     0.417600000000     0.199250000000     0          
T        Si     0.320300000000     0.452050000000     0.125000000000     0          
O        O      0.367800000000     0.235550000000     0.194225000000     0          
O        O      0.346850000000     0.291900000000     0.168425000000     0          
O        O      0.287100000000     0.212900000000     0.184500000000     0          
O        O      0.331450000000     0.263200000000     0.000000000000     0          
T        Si     0.333300000000     0.250900000000     0.199250000000     0          
T        Si     0.368250000000     0.320300000000     0.125000000000     0          
O        O      0.132250000000     0.367800000000     0.194225000000     0          
O        O      0.054950000000     0.346850000000     0.168425000000     0          
O        O      0.074200000000     0.287100000000     0.184500000000     0          
O        O      0.068250000000     0.331450000000     0.000000000000     0          
T        Si     0.082400000000     0.333300000000     0.199250000000     0          
T        Si     0.047950000000     0.368250000000     0.125000000000     0          
O        O      0.264450000000     0.132250000000     0.194225000000     0          
O        O      0.208100000000     0.054950000000     0.168425000000     0          
O        O      0.287100000000     0.074200000000     0.184500000000     0          
O        O      0.236800000000     0.068250000000     0.000000000000     0          
T        Si     0.249100000000     0.082400000000     0.199250000000     0          
T        Si     0.179700000000     0.047950000000     0.125000000000     0          
O        O      0.132200000000     0.264450000000     0.194225000000     0          
O        O      0.153150000000     0.208100000000     0.168425000000     0          
O        O      0.212900000000     0.287100000000     0.184500000000     0          
O        O      0.168550000000     0.236800000000     0.000000000000     0          
T        Si     0.166700000000     0.249100000000     0.199250000000     0          
T        Si     0.131750000000     0.179700000000     0.125000000000     0          
O        O      0.367750000000     0.132200000000     0.194225000000     0          
O        O      0.445050000000     0.153150000000     0.168425000000     0          
O        O      0.425800000000     0.212900000000     0.184500000000     0          
O        O      0.431750000000     0.168550000000     0.000000000000     0          
T        Si     0.417600000000     0.166700000000     0.199250000000     0          
T        Si     0.452050000000     0.131750000000     0.125000000000     0          
O        O      0.445050000000     0.291900000000     0.168425000000     0          
T        Si     0.417600000000     0.250900000000     0.199250000000     0          
O        O      0.153150000000     0.445050000000     0.168425000000     0          
T        Si     0.166700000000     0.417600000000     0.199250000000     0          
O        O      0.208100000000     0.153150000000     0.168425000000     0          
T        Si     0.249100000000     0.166700000000     0.199250000000     0          
O        O      0.054950000000     0.208100000000     0.168425000000     0          
T        Si     0.082400000000     0.249100000000     0.199250000000     0          
O        O      0.346850000000     0.054950000000     0.168425000000     0          
T        Si     0.333300000000     0.082400000000     0.199250000000     0          
O        O      0.291900000000     0.346850000000     0.168425000000     0          
T        Si     0.250900000000     0.333300000000     0.199250000000     0          
O        O      0.208100000000     0.054950000000     0.081575000000     0          
T        Si     0.249100000000     0.082400000000     0.050750000000     0          
O        O      0.153150000000     0.208100000000     0.081575000000     0          
T        Si     0.166700000000     0.249100000000     0.050750000000     0          
O        O      0.445050000000     0.153150000000     0.081575000000     0          
T        Si     0.417600000000     0.166700000000     0.050750000000     0          
O        O      0.291900000000     0.445050000000     0.081575000000     0          
T        Si     0.250900000000     0.417600000000     0.050750000000     0          
O        O      0.346850000000     0.291900000000     0.081575000000     0          
T        Si     0.333300000000     0.250900000000     0.050750000000     0          
O        O      0.054950000000     0.346850000000     0.081575000000     0          
T        Si     0.082400000000     0.333300000000     0.050750000000     0          
O        O      0.132250000000     0.264450000000     0.305775000000     0          
O        O      0.054950000000     0.208100000000     0.331575000000     0          
O        O      0.074200000000     0.287100000000     0.315500000000     0          
O        O      0.068250000000     0.236800000000     0.250000000000     0          
O        O      0.000000000000     0.139850000000     0.375000000000     0          
O        O      0.081400000000     0.162800000000     0.375000000000     0          
T        Si     0.082400000000     0.249100000000     0.300750000000     0          
T        Si     0.047950000000     0.179700000000     0.375000000000     0          
O        O      0.367800000000     0.132250000000     0.305775000000     0          
O        O      0.346850000000     0.054950000000     0.331575000000     0          
O        O      0.287100000000     0.074200000000     0.315500000000     0          
O        O      0.331450000000     0.068250000000     0.250000000000     0          
O        O      0.360150000000     0.000000000000     0.375000000000     0          
O        O      0.418600000000     0.081400000000     0.375000000000     0          
T        Si     0.333300000000     0.082400000000     0.300750000000     0          
T        Si     0.368250000000     0.047950000000     0.375000000000     0          
O        O      0.235550000000     0.367800000000     0.305775000000     0          
O        O      0.291900000000     0.346850000000     0.331575000000     0          
O        O      0.212900000000     0.287100000000     0.315500000000     0          
O        O      0.263200000000     0.331450000000     0.250000000000     0          
O        O      0.360150000000     0.360150000000     0.375000000000     0          
O        O      0.337200000000     0.418600000000     0.375000000000     0          
T        Si     0.250900000000     0.333300000000     0.300750000000     0          
T        Si     0.320300000000     0.368250000000     0.375000000000     0          
O        O      0.367750000000     0.235550000000     0.305775000000     0          
O        O      0.445050000000     0.291900000000     0.331575000000     0          
O        O      0.425800000000     0.212900000000     0.315500000000     0          
O        O      0.431750000000     0.263200000000     0.250000000000     0          
O        O      0.000000000000     0.360150000000     0.375000000000     0          
O        O      0.418600000000     0.337200000000     0.375000000000     0          
T        Si     0.417600000000     0.250900000000     0.300750000000     0          
T        Si     0.452050000000     0.320300000000     0.375000000000     0          
O        O      0.132200000000     0.367750000000     0.305775000000     0          
O        O      0.153150000000     0.445050000000     0.331575000000     0          
O        O      0.212900000000     0.425800000000     0.315500000000     0          
O        O      0.168550000000     0.431750000000     0.250000000000     0          
O        O      0.139850000000     0.000000000000     0.375000000000     0          
O        O      0.081400000000     0.418600000000     0.375000000000     0          
T        Si     0.166700000000     0.417600000000     0.300750000000     0          
T        Si     0.131750000000     0.452050000000     0.375000000000     0          
O        O      0.264450000000     0.132200000000     0.305775000000     0          
O        O      0.208100000000     0.153150000000     0.331575000000     0          
O        O      0.287100000000     0.212900000000     0.315500000000     0          
O        O      0.236800000000     0.168550000000     0.250000000000     0          
O        O      0.139850000000     0.139850000000     0.375000000000     0          
O        O      0.162800000000     0.081400000000     0.375000000000     0          
T        Si     0.249100000000     0.166700000000     0.300750000000     0          
T        Si     0.179700000000     0.131750000000     0.375000000000     0          
O        O      0.235550000000     0.367750000000     0.444225000000     0          
O        O      0.291900000000     0.445050000000     0.418425000000     0          
O        O      0.212900000000     0.425800000000     0.434500000000     0          
O        O      0.263200000000     0.431750000000     0.250000000000     0          
T        Si     0.250900000000     0.417600000000     0.449250000000     0          
T        Si     0.320300000000     0.452050000000     0.375000000000     0          
O        O      0.367800000000     0.235550000000     0.444225000000     0          
O        O      0.346850000000     0.291900000000     0.418425000000     0          
O        O      0.287100000000     0.212900000000     0.434500000000     0          
O        O      0.331450000000     0.263200000000     0.250000000000     0          
T        Si     0.333300000000     0.250900000000     0.449250000000     0          
T        Si     0.368250000000     0.320300000000     0.375000000000     0          
O        O      0.132250000000     0.367800000000     0.444225000000     0          
O        O      0.054950000000     0.346850000000     0.418425000000     0          
O        O      0.074200000000     0.287100000000     0.434500000000     0          
O        O      0.068250000000     0.331450000000     0.250000000000     0          
T        Si     0.082400000000     0.333300000000     0.449250000000     0          
T        Si     0.047950000000     0.368250000000     0.375000000000     0          
O        O      0.264450000000     0.132250000000     0.444225000000     0          
O        O      0.208100000000     0.054950000000     0.418425000000     0          
O        O      0.287100000000     0.074200000000     0.434500000000     0          
O        O      0.236800000000     0.068250000000     0.250000000000     0          
T        Si     0.249100000000     0.082400000000     0.449250000000     0          
T        Si     0.179700000000     0.047950000000     0.375000000000     0          
O        O      0.132200000000     0.264450000000     0.444225000000     0          
O        O      0.153150000000     0.208100000000     0.418425000000     0          
O        O      0.212900000000     0.287100000000     0.434500000000     0          
O        O      0.168550000000     0.236800000000     0.250000000000     0          
T        Si     0.166700000000     0.249100000000     0.449250000000     0          
T        Si     0.131750000000     0.179700000000     0.375000000000     0          
O        O      0.367750000000     0.132200000000     0.444225000000     0          
O        O      0.445050000000     0.153150000000     0.418425000000     0          
O        O      0.425800000000     0.212900000000     0.434500000000     0          
O        O      0.431750000000     0.168550000000     0.250000000000     0          
T        Si     0.417600000000     0.166700000000     0.449250000000     0          
T        Si     0.452050000000     0.131750000000     0.375000000000     0          
O        O      0.445050000000     0.291900000000     0.418425000000     0          
T        Si     0.417600000000     0.250900000000     0.449250000000     0          
O        O      0.153150000000     0.445050000000     0.418425000000     0          
T        Si     0.166700000000     0.417600000000     0.449250000000     0          
O        O      0.208100000000     0.153150000000     0.418425000000     0          
T        Si     0.249100000000     0.166700000000     0.449250000000     0          
O        O      0.054950000000     0.208100000000     0.418425000000     0          
T        Si     0.082400000000     0.249100000000     0.449250000000     0          
O        O      0.346850000000     0.054950000000     0.418425000000     0          
T        Si     0.333300000000     0.082400000000     0.449250000000     0          
O        O      0.291900000000     0.346850000000     0.418425000000     0          
T        Si     0.250900000000     0.333300000000     0.449250000000     0          
O        O      0.208100000000     0.054950000000     0.331575000000     0          
T        Si     0.249100000000     0.082400000000     0.300750000000     0          
O        O      0.153150000000     0.208100000000     0.331575000000     0          
T        Si     0.166700000000     0.249100000000     0.300750000000     0          
O        O      0.445050000000     0.153150000000     0.331575000000     0          
T        Si     0.417600000000     0.166700000000     0.300750000000     0          
O        O      0.291900000000     0.445050000000     0.331575000000     0          
T        Si     0.250900000000     0.417600000000     0.300750000000     0          
O        O      0.346850000000     0.291900000000     0.331575000000     0          
T        Si     0.333300000000     0.250900000000     0.300750000000     0          
O        O      0.054950000000     0.346850000000     0.331575000000     0          
T        Si     0.082400000000     0.333300000000     0.300750000000     0          
O        O      0.132250000000     0.264450000000     0.555775000000     0          
O        O      0.054950000000     0.208100000000     0.581575000000     0          
O        O      0.074200000000     0.287100000000     0.565500000000     0          
O        O      0.068250000000     0.236800000000     0.500000000000     0          
O        O      0.000000000000     0.139850000000     0.625000000000     0          
O        O      0.081400000000     0.162800000000     0.625000000000     0          
T        Si     0.082400000000     0.249100000000     0.550750000000     0          
T        Si     0.047950000000     0.179700000000     0.625000000000     0          
O        O      0.367800000000     0.132250000000     0.555775000000     0          
O        O      0.346850000000     0.054950000000     0.581575000000     0          
O        O      0.287100000000     0.074200000000     0.565500000000     0          
O        O      0.331450000000     0.068250000000     0.500000000000     0          
O        O      0.360150000000     0.000000000000     0.625000000000     0          
O        O      0.418600000000     0.081400000000     0.625000000000     0          
T        Si     0.333300000000     0.082400000000     0.550750000000     0          
T        Si     0.368250000000     0.047950000000     0.625000000000     0          
O        O      0.235550000000     0.367800000000     0.555775000000     0          
O        O      0.291900000000     0.346850000000     0.581575000000     0          
O        O      0.212900000000     0.287100000000     0.565500000000     0          
O        O      0.263200000000     0.331450000000     0.500000000000     0          
O        O      0.360150000000     0.360150000000     0.625000000000     0          
O        O      0.337200000000     0.418600000000     0.625000000000     0          
T        Si     0.250900000000     0.333300000000     0.550750000000     0          
T        Si     0.320300000000     0.368250000000     0.625000000000     0          
O        O      0.367750000000     0.235550000000     0.555775000000     0          
O        O      0.445050000000     0.291900000000     0.581575000000     0          
O        O      0.425800000000     0.212900000000     0.565500000000     0          
O        O      0.431750000000     0.263200000000     0.500000000000     0          
O        O      0.000000000000     0.360150000000     0.625000000000     0          
O        O      0.418600000000     0.337200000000     0.625000000000     0          
T        Si     0.417600000000     0.250900000000     0.550750000000     0          
T        Si     0.452050000000     0.320300000000     0.625000000000     0          
O        O      0.132200000000     0.367750000000     0.555775000000     0          
O        O      0.153150000000     0.445050000000     0.581575000000     0          
O        O      0.212900000000     0.425800000000     0.565500000000     0          
O        O      0.168550000000     0.431750000000     0.500000000000     0          
O        O      0.139850000000     0.000000000000     0.625000000000     0          
O        O      0.081400000000     0.418600000000     0.625000000000     0          
T        Si     0.166700000000     0.417600000000     0.550750000000     0          
T        Si     0.131750000000     0.452050000000     0.625000000000     0          
O        O      0.264450000000     0.132200000000     0.555775000000     0          
O        O      0.208100000000     0.153150000000     0.581575000000     0          
O        O      0.287100000000     0.212900000000     0.565500000000     0          
O        O      0.236800000000     0.168550000000     0.500000000000     0          
O        O      0.139850000000     0.139850000000     0.625000000000     0          
O        O      0.162800000000     0.081400000000     0.625000000000     0          
T        Si     0.249100000000     0.166700000000     0.550750000000     0          
T        Si     0.179700000000     0.131750000000     0.625000000000     0          
O        O      0.235550000000     0.367750000000     0.694225000000     0          
O        O      0.291900000000     0.445050000000     0.668425000000     0          
O        O      0.212900000000     0.425800000000     0.684500000000     0          
O        O      0.263200000000     0.431750000000     0.500000000000     0          
T        Si     0.250900000000     0.417600000000     0.699250000000     0          
T        Si     0.320300000000     0.452050000000     0.625000000000     0          
O        O      0.367800000000     0.235550000000     0.694225000000     0          
O        O      0.346850000000     0.291900000000     0.668425000000     0          
O        O      0.287100000000     0.212900000000     0.684500000000     0          
O        O      0.331450000000     0.263200000000     0.500000000000     0          
T        Si     0.333300000000     0.250900000000     0.699250000000     0          
T        Si     0.368250000000     0.320300000000     0.625000000000     0          
O        O      0.132250000000     0.367800000000     0.694225000000     0          
O        O      0.054950000000     0.346850000000     0.668425000000     0          
O        O      0.074200000000     0.287100000000     0.684500000000     0          
O        O      0.068250000000     0.331450000000     0.500000000000     0          
T        Si     0.082400000000     0.333300000000     0.699250000000     0          
T        Si     0.047950000000     0.368250000000     0.625000000000     0          
O        O      0.264450000000     0.132250000000     0.694225000000     0          
O        O      0.208100000000     0.054950000000     0.668425000000     0          
O        O      0.287100000000     0.074200000000     0.684500000000     0          
O        O      0.236800000000     0.068250000000     0.500000000000     0          
T        Si     0.249100000000     0.082400000000     0.699250000000     0          
T        Si     0.179700000000     0.047950000000     0.625000000000     0          
O        O      0.132200000000     0.264450000000     0.694225000000     0          
O        O      0.153150000000     0.208100000000     0.668425000000     0          
O        O      0.212900000000     0.287100000000     0.684500000000     0          
O        O      0.168550000000     0.236800000000     0.500000000000     0          
T        Si     0.166700000000     0.249100000000     0.699250000000     0          
T        Si     0.131750000000     0.179700000000     0.625000000000     0          
O        O      0.367750000000     0.132200000000     0.694225000000     0          
O        O      0.445050000000     0.153150000000     0.668425000000     0          
O        O      0.425800000000     0.212900000000     0.684500000000     0          
O        O      0.431750000000     0.168550000000     0.500000000000     0          
T        Si     0.417600000000     0.166700000000     0.699250000000     0          
T        Si     0.452050000000     0.131750000000     0.625000000000     0          
O        O      0.445050000000     0.291900000000     0.668425000000     0          
T        Si     0.417600000000     0.250900000000     0.699250000000     0          
O        O      0.153150000000     0.445050000000     0.668425000000     0          
T        Si     0.166700000000     0.417600000000     0.699250000000     0          
O        O      0.208100000000     0.153150000000     0.668425000000     0          
T        Si     0.249100000000     0.166700000000     0.699250000000     0          
O        O      0.054950000000     0.208100000000     0.668425000000     0          
T        Si     0.082400000000     0.249100000000     0.699250000000     0          
O        O      0.346850000000     0.054950000000     0.668425000000     0          
T        Si     0.333300000000     0.082400000000     0.699250000000     0          
O        O      0.291900000000     0.346850000000     0.668425000000     0          
T        Si     0.250900000000     0.333300000000     0.699250000000     0          
O        O      0.208100000000     0.054950000000     0.581575000000     0          
T        Si     0.249100000000     0.082400000000     0.550750000000     0          
O        O      0.153150000000     0.208100000000     0.581575000000     0          
T        Si     0.166700000000     0.249100000000     0.550750000000     0          
O        O      0.445050000000     0.153150000000     0.581575000000     0          
T        Si     0.417600000000     0.166700000000     0.550750000000     0          
O        O      0.291900000000     0.445050000000     0.581575000000     0          
T        Si     0.250900000000     0.417600000000     0.550750000000     0          
O        O      0.346850000000     0.291900000000     0.581575000000     0          
T        Si     0.333300000000     0.250900000000     0.550750000000     0          
O        O      0.054950000000     0.346850000000     0.581575000000     0          
T        Si     0.082400000000     0.333300000000     0.550750000000     0          
O        O      0.132250000000     0.264450000000     0.805775000000     0          
O        O      0.054950000000     0.208100000000     0.831575000000     0          
O        O      0.074200000000     0.287100000000     0.815500000000     0          
O        O      0.068250000000     0.236800000000     0.750000000000     0          
O        O      0.000000000000     0.139850000000     0.875000000000     0          
O        O      0.081400000000     0.162800000000     0.875000000000     0          
T        Si     0.082400000000     0.249100000000     0.800750000000     0          
T        Si     0.047950000000     0.179700000000     0.875000000000     0          
O        O      0.367800000000     0.132250000000     0.805775000000     0          
O        O      0.346850000000     0.054950000000     0.831575000000     0          
O        O      0.287100000000     0.074200000000     0.815500000000     0          
O        O      0.331450000000     0.068250000000     0.750000000000     0          
O        O      0.360150000000     0.000000000000     0.875000000000     0          
O        O      0.418600000000     0.081400000000     0.875000000000     0          
T        Si     0.333300000000     0.082400000000     0.800750000000     0          
T        Si     0.368250000000     0.047950000000     0.875000000000     0          
O        O      0.235550000000     0.367800000000     0.805775000000     0          
O        O      0.291900000000     0.346850000000     0.831575000000     0          
O        O      0.212900000000     0.287100000000     0.815500000000     0          
O        O      0.263200000000     0.331450000000     0.750000000000     0          
O        O      0.360150000000     0.360150000000     0.875000000000     0          
O        O      0.337200000000     0.418600000000     0.875000000000     0          
T        Si     0.250900000000     0.333300000000     0.800750000000     0          
T        Si     0.320300000000     0.368250000000     0.875000000000     0          
O        O      0.367750000000     0.235550000000     0.805775000000     0          
O        O      0.445050000000     0.291900000000     0.831575000000     0          
O        O      0.425800000000     0.212900000000     0.815500000000     0          
O        O      0.431750000000     0.263200000000     0.750000000000     0          
O        O      0.000000000000     0.360150000000     0.875000000000     0          
O        O      0.418600000000     0.337200000000     0.875000000000     0          
T        Si     0.417600000000     0.250900000000     0.800750000000     0          
T        Si     0.452050000000     0.320300000000     0.875000000000     0          
O        O      0.132200000000     0.367750000000     0.805775000000     0          
O        O      0.153150000000     0.445050000000     0.831575000000     0          
O        O      0.212900000000     0.425800000000     0.815500000000     0          
O        O      0.168550000000     0.431750000000     0.750000000000     0          
O        O      0.139850000000     0.000000000000     0.875000000000     0          
O        O      0.081400000000     0.418600000000     0.875000000000     0          
T        Si     0.166700000000     0.417600000000     0.800750000000     0          
T        Si     0.131750000000     0.452050000000     0.875000000000     0          
O        O      0.264450000000     0.132200000000     0.805775000000     0          
O        O      0.208100000000     0.153150000000     0.831575000000     0          
O        O      0.287100000000     0.212900000000     0.815500000000     0          
O        O      0.236800000000     0.168550000000     0.750000000000     0          
O        O      0.139850000000     0.139850000000     0.875000000000     0          
O        O      0.162800000000     0.081400000000     0.875000000000     0          
T        Si     0.249100000000     0.166700000000     0.800750000000     0          
T        Si     0.179700000000     0.131750000000     0.875000000000     0          
O        O      0.235550000000     0.367750000000     0.944225000000     0          
O        O      0.291900000000     0.445050000000     0.918425000000     0          
O        O      0.212900000000     0.425800000000     0.934500000000     0          
O        O      0.263200000000     0.431750000000     0.750000000000     0          
T        Si     0.250900000000     0.417600000000     0.949250000000     0          
T        Si     0.320300000000     0.452050000000     0.875000000000     0          
O        O      0.367800000000     0.235550000000     0.944225000000     0          
O        O      0.346850000000     0.291900000000     0.918425000000     0          
O        O      0.287100000000     0.212900000000     0.934500000000     0          
O        O      0.331450000000     0.263200000000     0.750000000000     0          
T        Si     0.333300000000     0.250900000000     0.949250000000     0          
T        Si     0.368250000000     0.320300000000     0.875000000000     0          
O        O      0.132250000000     0.367800000000     0.944225000000     0          
O        O      0.054950000000     0.346850000000     0.918425000000     0          
O        O      0.074200000000     0.287100000000     0.934500000000     0          
O        O      0.068250000000     0.331450000000     0.750000000000     0          
T        Si     0.082400000000     0.333300000000     0.949250000000     0          
T        Si     0.047950000000     0.368250000000     0.875000000000     0          
O        O      0.264450000000     0.132250000000     0.944225000000     0          
O        O      0.208100000000     0.054950000000     0.918425000000     0          
O        O      0.287100000000     0.074200000000     0.934500000000     0          
O        O      0.236800000000     0.068250000000     0.750000000000     0          
T        Si     0.249100000000     0.082400000000     0.949250000000     0          
T        Si     0.179700000000     0.047950000000     0.875000000000     0          
O        O      0.132200000000     0.264450000000     0.944225000000     0          
O        O      0.153150000000     0.208100000000     0.918425000000     0          
O        O      0.212900000000     0.287100000000     0.934500000000     0          
O        O      0.168550000000     0.236800000000     0.750000000000     0          
T        Si     0.166700000000     0.249100000000     0.949250000000     0          
T        Si     0.131750000000     0.179700000000     0.875000000000     0          
O        O      0.367750000000     0.132200000000     0.944225000000     0          
O        O      0.445050000000     0.153150000000     0.918425000000     0          
O        O      0.425800000000     0.212900000000     0.934500000000     0          
O        O      0.431750000000     0.168550000000     0.750000000000     0          
T        Si     0.417600000000     0.166700000000     0.949250000000     0          
T        Si     0.452050000000     0.131750000000     0.875000000000     0          
O        O      0.445050000000     0.291900000000     0.918425000000     0          
T        Si     0.417600000000     0.250900000000     0.949250000000     0          
O        O      0.153150000000     0.445050000000     0.918425000000     0          
T        Si     0.166700000000     0.417600000000     0.949250000000     0          
O        O      0.208100000000     0.153150000000     0.918425000000     0          
T        Si     0.249100000000     0.166700000000     0.949250000000     0          
O        O      0.054950000000     0.208100000000     0.918425000000     0          
T        Si     0.082400000000     0.249100000000     0.949250000000     0          
O        O      0.346850000000     0.054950000000     0.918425000000     0          
T        Si     0.333300000000     0.082400000000     0.949250000000     0          
O        O      0.291900000000     0.346850000000     0.918425000000     0          
T        Si     0.250900000000     0.333300000000     0.949250000000     0          
O        O      0.208100000000     0.054950000000     0.831575000000     0          
T        Si     0.249100000000     0.082400000000     0.800750000000     0          
O        O      0.153150000000     0.208100000000     0.831575000000     0          
T        Si     0.166700000000     0.249100000000     0.800750000000     0          
O        O      0.445050000000     0.153150000000     0.831575000000     0          
T        Si     0.417600000000     0.166700000000     0.800750000000     0          
O        O      0.291900000000     0.445050000000     0.831575000000     0          
T        Si     0.250900000000     0.417600000000     0.800750000000     0          
O        O      0.346850000000     0.291900000000     0.831575000000     0          
T        Si     0.333300000000     0.250900000000     0.800750000000     0          
O        O      0.054950000000     0.346850000000     0.831575000000     0          
T        Si     0.082400000000     0.333300000000     0.800750000000     0          
O        O      0.132250000000     0.764450000000     0.055775000000     0          
O        O      0.054950000000     0.708100000000     0.081575000000     0          
O        O      0.074200000000     0.787100000000     0.065500000000     0          
O        O      0.068250000000     0.736800000000     0.000000000000     0          
O        O      0.000000000000     0.639850000000     0.125000000000     0          
O        O      0.081400000000     0.662800000000     0.125000000000     0          
T        Si     0.082400000000     0.749100000000     0.050750000000     0          
T        Si     0.047950000000     0.679700000000     0.125000000000     0          
O        O      0.367800000000     0.632250000000     0.055775000000     0          
O        O      0.346850000000     0.554950000000     0.081575000000     0          
O        O      0.287100000000     0.574200000000     0.065500000000     0          
O        O      0.331450000000     0.568250000000     0.000000000000     0          
O        O      0.360150000000     0.500000000000     0.125000000000     0          
O        O      0.418600000000     0.581400000000     0.125000000000     0          
T        Si     0.333300000000     0.582400000000     0.050750000000     0          
T        Si     0.368250000000     0.547950000000     0.125000000000     0          
O        O      0.235550000000     0.867800000000     0.055775000000     0          
O        O      0.291900000000     0.846850000000     0.081575000000     0          
O        O      0.212900000000     0.787100000000     0.065500000000     0          
O        O      0.263200000000     0.831450000000     0.000000000000     0          
O        O      0.360150000000     0.860150000000     0.125000000000     0          
O        O      0.337200000000     0.918600000000     0.125000000000     0          
T        Si     0.250900000000     0.833300000000     0.050750000000     0          
T        Si     0.320300000000     0.868250000000     0.125000000000     0          
O        O      0.367750000000     0.735550000000     0.055775000000     0          
O        O      0.445050000000     0.791900000000     0.081575000000     0          
O        O      0.425800000000     0.712900000000     0.065500000000     0          
O        O      0.431750000000     0.763200000000     0.000000000000     0          
O        O      0.000000000000     0.860150000000     0.125000000000     0          
O        O      0.418600000000     0.837200000000     0.125000000000     0          
T        Si     0.417600000000     0.750900000000     0.050750000000     0          
T        Si     0.452050000000     0.820300000000     0.125000000000     0          
O        O      0.132200000000     0.867750000000     0.055775000000     0          
O        O      0.153150000000     0.945050000000     0.081575000000     0          
O        O      0.212900000000     0.925800000000     0.065500000000     0          
O        O      0.168550000000     0.931750000000     0.000000000000     0          
O        O      0.139850000000     0.500000000000     0.125000000000     0          
O        O      0.081400000000     0.918600000000     0.125000000000     0          
T        Si     0.166700000000     0.917600000000     0.050750000000     0          
T        Si     0.131750000000     0.952050000000     0.125000000000     0          
O        O      0.264450000000     0.632200000000     0.055775000000     0          
O        O      0.208100000000     0.653150000000     0.081575000000     0          
O        O      0.287100000000     0.712900000000     0.065500000000     0          
O        O      0.236800000000     0.668550000000     0.000000000000     0          
O        O      0.139850000000     0.639850000000     0.125000000000     0          
O        O      0.162800000000     0.581400000000     0.125000000000     0          
T        Si     0.249100000000     0.666700000000     0.050750000000     0          
T        Si     0.179700000000     0.631750000000     0.125000000000     0          
O        O      0.235550000000     0.867750000000     0.194225000000     0          
O        O      0.291900000000     0.945050000000     0.168425000000     0          
O        O      0.212900000000     0.925800000000     0.184500000000     0          
O        O      0.263200000000     0.931750000000     0.000000000000     0          
T        Si     0.250900000000     0.917600000000     0.199250000000     0          
T        Si     0.320300000000     0.952050000000     0.125000000000     0          
O        O      0.367800000000     0.735550000000     0.194225000000     0          
O        O      0.346850000000     0.791900000000     0.168425000000     0          
O        O      0.287100000000     0.712900000000     0.184500000000     0          
O        O      0.331450000000     0.763200000000     0.000000000000     0          
T        Si     0.333300000000     0.750900000000     0.199250000000     0          
T        Si     0.368250000000     0.820300000000     0.125000000000     0          
O        O      0.132250000000     0.867800000000     0.194225000000     0          
O        O      0.054950000000     0.846850000000     0.168425000000     0          
O        O      0.074200000000     0.787100000000     0.184500000000     0          
O        O      0.068250000000     0.831450000000     0.000000000000     0          
T        Si     0.082400000000     0.833300000000     0.199250000000     0          
T        Si     0.047950000000     0.868250000000     0.125000000000     0          
O        O      0.264450000000     0.632250000000     0.194225000000     0          
O        O      0.208100000000     0.554950000000     0.168425000000     0          
O        O      0.287100000000     0.574200000000     0.184500000000     0          
O        O      0.236800000000     0.568250000000     0.000000000000     0          
T        Si     0.249100000000     0.582400000000     0.199250000000     0          
T        Si     0.179700000000     0.547950000000     0.125000000000     0          
O        O      0.132200000000     0.764450000000     0.194225000000     0          
O        O      0.153150000000     0.708100000000     0.168425000000     0          
O        O      0.212900000000     0.787100000000     0.184500000000     0          
O        O      0.168550000000     0.736800000000     0.000000000000     0          
T        Si     0.166700000000     0.749100000000     0.199250000000     0          
T        Si     0.131750000000     0.679700000000     0.125000000000     0          
O        O      0.367750000000     0.632200000000     0.194225000000     0          
O        O      0.445050000000     0.653150000000     0.168425000000     0          
O        O      0.425800000000     0.712900000000     0.184500000000     0          
O        O      0.431750000000     0.668550000000     0.000000000000     0          
T        Si     0.417600000000     0.666700000000     0.199250000000     0          
T        Si     0.452050000000     0.631750000000     0.125000000000     0          
O        O      0.445050000000     0.791900000000     0.168425000000     0          
T        Si     0.417600000000     0.750900000000     0.199250000000     0          
O        O      0.153150000000     0.945050000000     0.168425000000     0          
T        Si     0.166700000000     0.917600000000     0.199250000000     0          
O        O      0.208100000000     0.653150000000     0.168425000000     0          
T        Si     0.249100000000     0.666700000000     0.199250000000     0          
O        O      0.054950000000     0.708100000000     0.168425000000     0          
T        Si     0.082400000000     0.749100000000     0.199250000000     0          
O        O      0.346850000000     0.554950000000     0.168425000000     0          
T        Si     0.333300000000     0.582400000000     0.199250000000     0          
O        O      0.291900000000     0.846850000000     0.168425000000     0          
T        Si     0.250900000000     0.833300000000     0.199250000000     0          
O        O      0.208100000000     0.554950000000     0.081575000000     0          
T        Si     0.249100000000     0.582400000000     0.050750000000     0          
O        O      0.153150000000     0.708100000000     0.081575000000     0          
T        Si     0.166700000000     0.749100000000     0.050750000000     0          
O        O      0.445050000000     0.653150000000     0.081575000000     0          
T        Si     0.417600000000     0.666700000000     0.050750000000     0          
O        O      0.291900000000     0.945050000000     0.081575000000     0          
T        Si     0.250900000000     0.917600000000     0.050750000000     0          
O        O      0.346850000000     0.791900000000     0.081575000000     0          
T        Si     0.333300000000     0.750900000000     0.050750000000     0          
O        O      0.054950000000     0.846850000000     0.081575000000     0          
T        Si     0.082400000000     0.833300000000     0.050750000000     0          
O        O      0.132250000000     0.764450000000     0.305775000000     0          
O        O      0.054950000000     0.708100000000     0.331575000000     0          
O        O      0.074200000000     0.787100000000     0.315500000000     0          
O        O      0.068250000000     0.736800000000     0.250000000000     0          
O        O      0.000000000000     0.639850000000     0.375000000000     0          
O        O      0.081400000000     0.662800000000     0.375000000000     0          
T        Si     0.082400000000     0.749100000000     0.300750000000     0          
T        Si     0.047950000000     0.679700000000     0.375000000000     0          
O        O      0.367800000000     0.632250000000     0.305775000000     0          
O        O      0.346850000000     0.554950000000     0.331575000000     0          
O        O      0.287100000000     0.574200000000     0.315500000000     0          
O        O      0.331450000000     0.568250000000     0.250000000000     0          
O        O      0.360150000000     0.500000000000     0.375000000000     0          
O        O      0.418600000000     0.581400000000     0.375000000000     0          
T        Si     0.333300000000     0.582400000000     0.300750000000     0          
T        Si     0.368250000000     0.547950000000     0.375000000000     0          
O        O      0.235550000000     0.867800000000     0.305775000000     0          
O        O      0.291900000000     0.846850000000     0.331575000000     0          
O        O      0.212900000000     0.787100000000     0.315500000000     0          
O        O      0.263200000000     0.831450000000     0.250000000000     0          
O        O      0.360150000000     0.860150000000     0.375000000000     0          
O        O      0.337200000000     0.918600000000     0.375000000000     0          
T        Si     0.250900000000     0.833300000000     0.300750000000     0          
T        Si     0.320300000000     0.868250000000     0.375000000000     0          
O        O      0.367750000000     0.735550000000     0.305775000000     0          
O        O      0.445050000000     0.791900000000     0.331575000000     0          
O        O      0.425800000000     0.712900000000     0.315500000000     0          
O        O      0.431750000000     0.763200000000     0.250000000000     0          
O        O      0.000000000000     0.860150000000     0.375000000000     0          
O        O      0.418600000000     0.837200000000     0.375000000000     0          
T        Si     0.417600000000     0.750900000000     0.300750000000     0          
T        Si     0.452050000000     0.820300000000     0.375000000000     0          
O        O      0.132200000000     0.867750000000     0.305775000000     0          
O        O      0.153150000000     0.945050000000     0.331575000000     0          
O        O      0.212900000000     0.925800000000     0.315500000000     0          
O        O      0.168550000000     0.931750000000     0.250000000000     0          
O        O      0.139850000000     0.500000000000     0.375000000000     0          
O        O      0.081400000000     0.918600000000     0.375000000000     0          
T        Si     0.166700000000     0.917600000000     0.300750000000     0          
T        Si     0.131750000000     0.952050000000     0.375000000000     0          
O        O      0.264450000000     0.632200000000     0.305775000000     0          
O        O      0.208100000000     0.653150000000     0.331575000000     0          
O        O      0.287100000000     0.712900000000     0.315500000000     0          
O        O      0.236800000000     0.668550000000     0.250000000000     0          
O        O      0.139850000000     0.639850000000     0.375000000000     0          
O        O      0.162800000000     0.581400000000     0.375000000000     0          
T        Si     0.249100000000     0.666700000000     0.300750000000     0          
T        Si     0.179700000000     0.631750000000     0.375000000000     0          
O        O      0.235550000000     0.867750000000     0.444225000000     0          
O        O      0.291900000000     0.945050000000     0.418425000000     0          
O        O      0.212900000000     0.925800000000     0.434500000000     0          
O        O      0.263200000000     0.931750000000     0.250000000000     0          
T        Si     0.250900000000     0.917600000000     0.449250000000     0          
T        Si     0.320300000000     0.952050000000     0.375000000000     0          
O        O      0.367800000000     0.735550000000     0.444225000000     0          
O        O      0.346850000000     0.791900000000     0.418425000000     0          
O        O      0.287100000000     0.712900000000     0.434500000000     0          
O        O      0.331450000000     0.763200000000     0.250000000000     0          
T        Si     0.333300000000     0.750900000000     0.449250000000     0          
T        Si     0.368250000000     0.820300000000     0.375000000000     0          
O        O      0.132250000000     0.867800000000     0.444225000000     0          
O        O      0.054950000000     0.846850000000     0.418425000000     0          
O        O      0.074200000000     0.787100000000     0.434500000000     0          
O        O      0.068250000000     0.831450000000     0.250000000000     0          
T        Si     0.082400000000     0.833300000000     0.449250000000     0          
T        Si     0.047950000000     0.868250000000     0.375000000000     0          
O        O      0.264450000000     0.632250000000     0.444225000000     0          
O        O      0.208100000000     0.554950000000     0.418425000000     0          
O        O      0.287100000000     0.574200000000     0.434500000000     0          
O        O      0.236800000000     0.568250000000     0.250000000000     0          
T        Si     0.249100000000     0.582400000000     0.449250000000     0          
T        Si     0.179700000000     0.547950000000     0.375000000000     0          
O        O      0.132200000000     0.764450000000     0.444225000000     0          
O        O      0.153150000000     0.708100000000     0.418425000000     0          
O        O      0.212900000000     0.787100000000     0.434500000000     0          
O        O      0.168550000000     0.736800000000     0.250000000000     0          
T        Si     0.166700000000     0.749100000000     0.449250000000     0          
T        Si     0.131750000000     0.679700000000     0.375000000000     0          
O        O      0.367750000000     0.632200000000     0.444225000000     0          
O        O      0.445050000000     0.653150000000     0.418425000000     0          
O        O      0.425800000000     0.712900000000     0.434500000000     0          
O        O      0.431750000000     0.668550000000     0.250000000000     0          
T        Si     0.417600000000     0.666700000000     0.449250000000     0          
T        Si     0.452050000000     0.631750000000     0.375000000000     0          
O        O      0.445050000000     0.791900000000     0.418425000000     0          
T        Si     0.417600000000     0.750900000000     0.449250000000     0          
O        O      0.153150000000     0.945050000000     0.418425000000     0          
T        Si     0.166700000000     0.917600000000     0.449250000000     0          
O        O      0.208100000000     0.653150000000     0.418425000000     0          
T        Si     0.249100000000     0.666700000000     0.449250000000     0          
O        O      0.054950000000     0.708100000000     0.418425000000     0          
T        Si     0.082400000000     0.749100000000     0.449250000000     0          
O        O      0.346850000000     0.554950000000     0.418425000000     0          
T        Si     0.333300000000     0.582400000000     0.449250000000     0          
O        O      0.291900000000     0.846850000000     0.418425000000     0          
T        Si     0.250900000000     0.833300000000     0.449250000000     0          
O        O      0.208100000000     0.554950000000     0.331575000000     0          
T        Si     0.249100000000     0.582400000000     0.300750000000     0          
O        O      0.153150000000     0.708100000000     0.331575000000     0          
T        Si     0.166700000000     0.749100000000     0.300750000000     0          
O        O      0.445050000000     0.653150000000     0.331575000000     0          
T        Si     0.417600000000     0.666700000000     0.300750000000     0          
O        O      0.291900000000     0.945050000000     0.331575000000     0          
T        Si     0.250900000000     0.917600000000     0.300750000000     0          
O        O      0.346850000000     0.791900000000     0.331575000000     0          
T        Si     0.333300000000     0.750900000000     0.300750000000     0          
O        O      0.054950000000     0.846850000000     0.331575000000     0          
T        Si     0.082400000000     0.833300000000     0.300750000000     0          
O        O      0.132250000000     0.764450000000     0.555775000000     0          
O        O      0.054950000000     0.708100000000     0.581575000000     0          
O        O      0.074200000000     0.787100000000     0.565500000000     0          
O        O      0.068250000000     0.736800000000     0.500000000000     0          
O        O      0.000000000000     0.639850000000     0.625000000000     0          
O        O      0.081400000000     0.662800000000     0.625000000000     0          
T        Si     0.082400000000     0.749100000000     0.550750000000     0          
T        Si     0.047950000000     0.679700000000     0.625000000000     0          
O        O      0.367800000000     0.632250000000     0.555775000000     0          
O        O      0.346850000000     0.554950000000     0.581575000000     0          
O        O      0.287100000000     0.574200000000     0.565500000000     0          
O        O      0.331450000000     0.568250000000     0.500000000000     0          
O        O      0.360150000000     0.500000000000     0.625000000000     0          
O        O      0.418600000000     0.581400000000     0.625000000000     0          
T        Si     0.333300000000     0.582400000000     0.550750000000     0          
T        Si     0.368250000000     0.547950000000     0.625000000000     0          
O        O      0.235550000000     0.867800000000     0.555775000000     0          
O        O      0.291900000000     0.846850000000     0.581575000000     0          
O        O      0.212900000000     0.787100000000     0.565500000000     0          
O        O      0.263200000000     0.831450000000     0.500000000000     0          
O        O      0.360150000000     0.860150000000     0.625000000000     0          
O        O      0.337200000000     0.918600000000     0.625000000000     0          
T        Si     0.250900000000     0.833300000000     0.550750000000     0          
T        Si     0.320300000000     0.868250000000     0.625000000000     0          
O        O      0.367750000000     0.735550000000     0.555775000000     0          
O        O      0.445050000000     0.791900000000     0.581575000000     0          
O        O      0.425800000000     0.712900000000     0.565500000000     0          
O        O      0.431750000000     0.763200000000     0.500000000000     0          
O        O      0.000000000000     0.860150000000     0.625000000000     0          
O        O      0.418600000000     0.837200000000     0.625000000000     0          
T        Si     0.417600000000     0.750900000000     0.550750000000     0          
T        Si     0.452050000000     0.820300000000     0.625000000000     0          
O        O      0.132200000000     0.867750000000     0.555775000000     0          
O        O      0.153150000000     0.945050000000     0.581575000000     0          
O        O      0.212900000000     0.925800000000     0.565500000000     0          
O        O      0.168550000000     0.931750000000     0.500000000000     0          
O        O      0.139850000000     0.500000000000     0.625000000000     0          
O        O      0.081400000000     0.918600000000     0.625000000000     0          
T        Si     0.166700000000     0.917600000000     0.550750000000     0          
T        Si     0.131750000000     0.952050000000     0.625000000000     0          
O        O      0.264450000000     0.632200000000     0.555775000000     0          
O        O      0.208100000000     0.653150000000     0.581575000000     0          
O        O      0.287100000000     0.712900000000     0.565500000000     0          
O        O      0.236800000000     0.668550000000     0.500000000000     0          
O        O      0.139850000000     0.639850000000     0.625000000000     0          
O        O      0.162800000000     0.581400000000     0.625000000000     0          
T        Si     0.249100000000     0.666700000000     0.550750000000     0          
T        Si     0.179700000000     0.631750000000     0.625000000000     0          
O        O      0.235550000000     0.867750000000     0.694225000000     0          
O        O      0.291900000000     0.945050000000     0.668425000000     0          
O        O      0.212900000000     0.925800000000     0.684500000000     0          
O        O      0.263200000000     0.931750000000     0.500000000000     0          
T        Si     0.250900000000     0.917600000000     0.699250000000     0          
T        Si     0.320300000000     0.952050000000     0.625000000000     0          
O        O      0.367800000000     0.735550000000     0.694225000000     0          
O        O      0.346850000000     0.791900000000     0.668425000000     0          
O        O      0.287100000000     0.712900000000     0.684500000000     0          
O        O      0.331450000000     0.763200000000     0.500000000000     0          
T        Si     0.333300000000     0.750900000000     0.699250000000     0          
T        Si     0.368250000000     0.820300000000     0.625000000000     0          
O        O      0.132250000000     0.867800000000     0.694225000000     0          
O        O      0.054950000000     0.846850000000     0.668425000000     0          
O        O      0.074200000000     0.787100000000     0.684500000000     0          
O        O      0.068250000000     0.831450000000     0.500000000000     0          
T        Si     0.082400000000     0.833300000000     0.699250000000     0          
T        Si     0.047950000000     0.868250000000     0.625000000000     0          
O        O      0.264450000000     0.632250000000     0.694225000000     0          
O        O      0.208100000000     0.554950000000     0.668425000000     0          
O        O      0.287100000000     0.574200000000     0.684500000000     0          
O        O      0.236800000000     0.568250000000     0.500000000000     0          
T        Si     0.249100000000     0.582400000000     0.699250000000     0          
T        Si     0.179700000000     0.547950000000     0.625000000000     0          
O        O      0.132200000000     0.764450000000     0.694225000000     0          
O        O      0.153150000000     0.708100000000     0.668425000000     0          
O        O      0.212900000000     0.787100000000     0.684500000000     0          
O        O      0.168550000000     0.736800000000     0.500000000000     0          
T        Si     0.166700000000     0.749100000000     0.699250000000     0          
T        Si     0.131750000000     0.679700000000     0.625000000000     0          
O        O      0.367750000000     0.632200000000     0.694225000000     0          
O        O      0.445050000000     0.653150000000     0.668425000000     0          
O        O      0.425800000000     0.712900000000     0.684500000000     0          
O        O      0.431750000000     0.668550000000     0.500000000000     0          
T        Si     0.417600000000     0.666700000000     0.699250000000     0          
T        Si     0.452050000000     0.631750000000     0.625000000000     0          
O        O      0.445050000000     0.791900000000     0.668425000000     0          
T        Si     0.417600000000     0.750900000000     0.699250000000     0          
O        O      0.153150000000     0.945050000000     0.668425000000     0          
T        Si     0.166700000000     0.917600000000     0.699250000000     0          
O        O      0.208100000000     0.653150000000     0.668425000000     0          
T        Si     0.249100000000     0.666700000000     0.699250000000     0          
O        O      0.054950000000     0.708100000000     0.668425000000     0          
T        Si     0.082400000000     0.749100000000     0.699250000000     0          
O        O      0.346850000000     0.554950000000     0.668425000000     0          
T        Si     0.333300000000     0.582400000000     0.699250000000     0          
O        O      0.291900000000     0.846850000000     0.668425000000     0          
T        Si     0.250900000000     0.833300000000     0.699250000000     0          
O        O      0.208100000000     0.554950000000     0.581575000000     0          
T        Si     0.249100000000     0.582400000000     0.550750000000     0          
O        O      0.153150000000     0.708100000000     0.581575000000     0          
T        Si     0.166700000000     0.749100000000     0.550750000000     0          
O        O      0.445050000000     0.653150000000     0.581575000000     0          
T        Si     0.417600000000     0.666700000000     0.550750000000     0          
O        O      0.291900000000     0.945050000000     0.581575000000     0          
T        Si     0.250900000000     0.917600000000     0.550750000000     0          
O        O      0.346850000000     0.791900000000     0.581575000000     0          
T        Si     0.333300000000     0.750900000000     0.550750000000     0          
O        O      0.054950000000     0.846850000000     0.581575000000     0          
T        Si     0.082400000000     0.833300000000     0.550750000000     0          
O        O      0.132250000000     0.764450000000     0.805775000000     0          
O        O      0.054950000000     0.708100000000     0.831575000000     0          
O        O      0.074200000000     0.787100000000     0.815500000000     0          
O        O      0.068250000000     0.736800000000     0.750000000000     0          
O        O      0.000000000000     0.639850000000     0.875000000000     0          
O        O      0.081400000000     0.662800000000     0.875000000000     0          
T        Si     0.082400000000     0.749100000000     0.800750000000     0          
T        Si     0.047950000000     0.679700000000     0.875000000000     0          
O        O      0.367800000000     0.632250000000     0.805775000000     0          
O        O      0.346850000000     0.554950000000     0.831575000000     0          
O        O      0.287100000000     0.574200000000     0.815500000000     0          
O        O      0.331450000000     0.568250000000     0.750000000000     0          
O        O      0.360150000000     0.500000000000     0.875000000000     0          
O        O      0.418600000000     0.581400000000     0.875000000000     0          
T        Si     0.333300000000     0.582400000000     0.800750000000     0          
T        Si     0.368250000000     0.547950000000     0.875000000000     0          
O        O      0.235550000000     0.867800000000     0.805775000000     0          
O        O      0.291900000000     0.846850000000     0.831575000000     0          
O        O      0.212900000000     0.787100000000     0.815500000000     0          
O        O      0.263200000000     0.831450000000     0.750000000000     0          
O        O      0.360150000000     0.860150000000     0.875000000000     0          
O        O      0.337200000000     0.918600000000     0.875000000000     0          
T        Si     0.250900000000     0.833300000000     0.800750000000     0          
T        Si     0.320300000000     0.868250000000     0.875000000000     0          
O        O      0.367750000000     0.735550000000     0.805775000000     0          
O        O      0.445050000000     0.791900000000     0.831575000000     0          
O        O      0.425800000000     0.712900000000     0.815500000000     0          
O        O      0.431750000000     0.763200000000     0.750000000000     0          
O        O      0.000000000000     0.860150000000     0.875000000000     0          
O        O      0.418600000000     0.837200000000     0.875000000000     0          
T        Si     0.417600000000     0.750900000000     0.800750000000     0          
T        Si     0.452050000000     0.820300000000     0.875000000000     0          
O        O      0.132200000000     0.867750000000     0.805775000000     0          
O        O      0.153150000000     0.945050000000     0.831575000000     0          
O        O      0.212900000000     0.925800000000     0.815500000000     0          
O        O      0.168550000000     0.931750000000     0.750000000000     0          
O        O      0.139850000000     0.500000000000     0.875000000000     0          
O        O      0.081400000000     0.918600000000     0.875000000000     0          
T        Si     0.166700000000     0.917600000000     0.800750000000     0          
T        Si     0.131750000000     0.952050000000     0.875000000000     0          
O        O      0.264450000000     0.632200000000     0.805775000000     0          
O        O      0.208100000000     0.653150000000     0.831575000000     0          
O        O      0.287100000000     0.712900000000     0.815500000000     0          
O        O      0.236800000000     0.668550000000     0.750000000000     0          
O        O      0.139850000000     0.639850000000     0.875000000000     0          
O        O      0.162800000000     0.581400000000     0.875000000000     0          
T        Si     0.249100000000     0.666700000000     0.800750000000     0          
T        Si     0.179700000000     0.631750000000     0.875000000000     0          
O        O      0.235550000000     0.867750000000     0.944225000000     0          
O        O      0.291900000000     0.945050000000     0.918425000000     0          
O        O      0.212900000000     0.925800000000     0.934500000000     0          
O        O      0.263200000000     0.931750000000     0.750000000000     0          
T        Si     0.250900000000     0.917600000000     0.949250000000     0          
T        Si     0.320300000000     0.952050000000     0.875000000000     0          
O        O      0.367800000000     0.735550000000     0.944225000000     0          
O        O      0.346850000000     0.791900000000     0.918425000000     0          
O        O      0.287100000000     0.712900000000     0.934500000000     0          
O        O      0.331450000000     0.763200000000     0.750000000000     0          
T        Si     0.333300000000     0.750900000000     0.949250000000     0          
T        Si     0.368250000000     0.820300000000     0.875000000000     0          
O        O      0.132250000000     0.867800000000     0.944225000000     0          
O        O      0.054950000000     0.846850000000     0.918425000000     0          
O        O      0.074200000000     0.787100000000     0.934500000000     0          
O        O      0.068250000000     0.831450000000     0.750000000000     0          
T        Si     0.082400000000     0.833300000000     0.949250000000     0          
T        Si     0.047950000000     0.868250000000     0.875000000000     0          
O        O      0.264450000000     0.632250000000     0.944225000000     0          
O        O      0.208100000000     0.554950000000     0.918425000000     0          
O        O      0.287100000000     0.574200000000     0.934500000000     0          
O        O      0.236800000000     0.568250000000     0.750000000000     0          
T        Si     0.249100000000     0.582400000000     0.949250000000     0          
T        Si     0.179700000000     0.547950000000     0.875000000000     0          
O        O      0.132200000000     0.764450000000     0.944225000000     0          
O        O      0.153150000000     0.708100000000     0.918425000000     0          
O        O      0.212900000000     0.787100000000     0.934500000000     0          
O        O      0.168550000000     0.736800000000     0.750000000000     0          
T        Si     0.166700000000     0.749100000000     0.949250000000     0          
T        Si     0.131750000000     0.679700000000     0.875000000000     0          
O        O      0.367750000000     0.632200000000     0.944225000000     0          
O        O      0.445050000000     0.653150000000     0.918425000000     0          
O        O      0.425800000000     0.712900000000     0.934500000000     0          
O        O      0.431750000000     0.668550000000     0.750000000000     0          
T        Si     0.417600000000     0.666700000000     0.949250000000     0          
T        Si     0.452050000000     0.631750000000     0.875000000000     0          
O        O      0.445050000000     0.791900000000     0.918425000000     0          
T        Si     0.417600000000     0.750900000000     0.949250000000     0          
O        O      0.153150000000     0.945050000000     0.918425000000     0          
T        Si     0.166700000000     0.917600000000     0.949250000000     0          
O        O      0.208100000000     0.653150000000     0.918425000000     0          
T        Si     0.249100000000     0.666700000000     0.949250000000     0          
O        O      0.054950000000     0.708100000000     0.918425000000     0          
T        Si     0.082400000000     0.749100000000     0.949250000000     0          
O        O      0.346850000000     0.554950000000     0.918425000000     0          
T        Si     0.333300000000     0.582400000000     0.949250000000     0          
O        O      0.291900000000     0.846850000000     0.918425000000     0          
T        Si     0.250900000000     0.833300000000     0.949250000000     0          
O        O      0.208100000000     0.554950000000     0.831575000000     0          
T        Si     0.249100000000     0.582400000000     0.800750000000     0          
O        O      0.153150000000     0.708100000000     0.831575000000     0          
T        Si     0.166700000000     0.749100000000     0.800750000000     0          
O        O      0.445050000000     0.653150000000     0.831575000000     0          
T        Si     0.417600000000     0.666700000000     0.800750000000     0          
O        O      0.291900000000     0.945050000000     0.831575000000     0          
T        Si     0.250900000000     0.917600000000     0.800750000000     0          
O        O      0.346850000000     0.791900000000     0.831575000000     0          
T        Si     0.333300000000     0.750900000000     0.800750000000     0          
O        O      0.054950000000     0.846850000000     0.831575000000     0          
T        Si     0.082400000000     0.833300000000     0.800750000000     0          
O        O      0.632250000000     0.264450000000     0.055775000000     0          
O        O      0.554950000000     0.208100000000     0.081575000000     0          
O        O      0.574200000000     0.287100000000     0.065500000000     0          
O        O      0.568250000000     0.236800000000     0.000000000000     0          
O        O      0.500000000000     0.139850000000     0.125000000000     0          
O        O      0.581400000000     0.162800000000     0.125000000000     0          
T        Si     0.582400000000     0.249100000000     0.050750000000     0          
T        Si     0.547950000000     0.179700000000     0.125000000000     0          
O        O      0.867800000000     0.132250000000     0.055775000000     0          
O        O      0.846850000000     0.054950000000     0.081575000000     0          
O        O      0.787100000000     0.074200000000     0.065500000000     0          
O        O      0.831450000000     0.068250000000     0.000000000000     0          
O        O      0.860150000000     0.000000000000     0.125000000000     0          
O        O      0.918600000000     0.081400000000     0.125000000000     0          
T        Si     0.833300000000     0.082400000000     0.050750000000     0          
T        Si     0.868250000000     0.047950000000     0.125000000000     0          
O        O      0.735550000000     0.367800000000     0.055775000000     0          
O        O      0.791900000000     0.346850000000     0.081575000000     0          
O        O      0.712900000000     0.287100000000     0.065500000000     0          
O        O      0.763200000000     0.331450000000     0.000000000000     0          
O        O      0.860150000000     0.360150000000     0.125000000000     0          
O        O      0.837200000000     0.418600000000     0.125000000000     0          
T        Si     0.750900000000     0.333300000000     0.050750000000     0          
T        Si     0.820300000000     0.368250000000     0.125000000000     0          
O        O      0.867750000000     0.235550000000     0.055775000000     0          
O        O      0.945050000000     0.291900000000     0.081575000000     0          
O        O      0.925800000000     0.212900000000     0.065500000000     0          
O        O      0.931750000000     0.263200000000     0.000000000000     0          
O        O      0.500000000000     0.360150000000     0.125000000000     0          
O        O      0.918600000000     0.337200000000     0.125000000000     0          
T        Si     0.917600000000     0.250900000000     0.050750000000     0          
T        Si     0.952050000000     0.320300000000     0.125000000000     0          
O        O      0.632200000000     0.367750000000     0.055775000000     0          
O        O      0.653150000000     0.445050000000     0.081575000000     0          
O        O      0.712900000000     0.425800000000     0.065500000000     0          
O        O      0.668550000000     0.431750000000     0.000000000000     0          
O        O      0.639850000000     0.000000000000     0.125000000000     0          
O        O      0.581400000000     0.418600000000     0.125000000000     0          
T        Si     0.666700000000     0.417600000000     0.050750000000     0          
T        Si     0.631750000000     0.452050000000     0.125000000000     0          
O        O      0.764450000000     0.132200000000     0.055775000000     0          
O        O      0.708100000000     0.153150000000     0.081575000000     0          
O        O      0.787100000000     0.212900000000     0.065500000000     0          
O        O      0.736800000000     0.168550000000     0.000000000000     0          
O        O      0.639850000000     0.139850000000     0.125000000000     0          
O        O      0.662800000000     0.081400000000     0.125000000000     0          
T        Si     0.749100000000     0.166700000000     0.050750000000     0          
T        Si     0.679700000000     0.131750000000     0.125000000000     0          
O        O      0.735550000000     0.367750000000     0.194225000000     0          
O        O      0.791900000000     0.445050000000     0.168425000000     0          
O        O      0.712900000000     0.425800000000     0.184500000000     0          
O        O      0.763200000000     0.431750000000     0.000000000000     0          
T        Si     0.750900000000     0.417600000000     0.199250000000     0          
T        Si     0.820300000000     0.452050000000     0.125000000000     0          
O        O      0.867800000000     0.235550000000     0.194225000000     0          
O        O      0.846850000000     0.291900000000     0.168425000000     0          
O        O      0.787100000000     0.212900000000     0.184500000000     0          
O        O      0.831450000000     0.263200000000     0.000000000000     0          
T        Si     0.833300000000     0.250900000000     0.199250000000     0          
T        Si     0.868250000000     0.320300000000     0.125000000000     0          
O        O      0.632250000000     0.367800000000     0.194225000000     0          
O        O      0.554950000000     0.346850000000     0.168425000000     0          
O        O      0.574200000000     0.287100000000     0.184500000000     0          
O        O      0.568250000000     0.331450000000     0.000000000000     0          
T        Si     0.582400000000     0.333300000000     0.199250000000     0          
T        Si     0.547950000000     0.368250000000     0.125000000000     0          
O        O      0.764450000000     0.132250000000     0.194225000000     0          
O        O      0.708100000000     0.054950000000     0.168425000000     0          
O        O      0.787100000000     0.074200000000     0.184500000000     0          
O        O      0.736800000000     0.068250000000     0.000000000000     0          
T        Si     0.749100000000     0.082400000000     0.199250000000     0          
T        Si     0.679700000000     0.047950000000     0.125000000000     0          
O        O      0.632200000000     0.264450000000     0.194225000000     0          
O        O      0.653150000000     0.208100000000     0.168425000000     0          
O        O      0.712900000000     0.287100000000     0.184500000000     0          
O        O      0.668550000000     0.236800000000     0.000000000000     0          
T        Si     0.666700000000     0.249100000000     0.199250000000     0          
T        Si     0.631750000000     0.179700000000     0.125000000000     0          
O        O      0.867750000000     0.132200000000     0.194225000000     0          
O        O      0.945050000000     0.153150000000     0.168425000000     0          
O        O      0.925800000000     0.212900000000     0.184500000000     0          
O        O      0.931750000000     0.168550000000     0.000000000000     0          
T        Si     0.917600000000     0.166700000000     0.199250000000     0          
T        Si     0.952050000000     0.131750000000     0.125000000000     0          
O        O      0.945050000000     0.291900000000     0.168425000000     0          
T        Si     0.917600000000     0.250900000000     0.199250000000     0          
O        O      0.653150000000     0.445050000000     0.168425000000     0          
T        Si     0.666700000000     0.417600000000     0.199250000000     0          
O        O      0.708100000000     0.153150000000     0.168425000000     0          
T        Si     0.749100000000     0.166700000000     0.199250000000     0          
O        O      0.554950000000     0.208100000000     0.168425000000     0          
T        Si     0.582400000000     0.249100000000     0.199250000000     0          
O        O      0.846850000000     0.054950000000     0.168425000000     0          
T        Si     0.833300000000     0.082400000000     0.199250000000     0          
O        O      0.791900000000     0.346850000000     0.168425000000     0          
T        Si     0.750900000000     0.333300000000     0.199250000000     0          
O        O      0.708100000000     0.054950000000     0.081575000000     0          
T        Si     0.749100000000     0.082400000000     0.050750000000     0          
O        O      0.653150000000     0.208100000000     0.081575000000     0          
T        Si     0.666700000000     0.249100000000     0.050750000000     0          
O        O      0.945050000000     0.153150000000     0.081575000000     0          
T        Si     0.917600000000     0.166700000000     0.050750000000     0          
O        O      0.791900000000     0.445050000000     0.081575000000     0          
T        Si     0.750900000000     0.417600000000     0.050750000000     0          
O        O      0.846850000000     0.291900000000     0.081575000000     0          
T        Si     0.833300000000     0.250900000000     0.050750000000     0          
O        O      0.554950000000     0.346850000000     0.081575000000     0          
T        Si     0.582400000000     0.333300000000     0.050750000000     0          
O        O      0.632250000000     0.264450000000     0.305775000000     0          
O        O      0.554950000000     0.208100000000     0.331575000000     0          
O        O      0.574200000000     0.287100000000     0.315500000000     0          
O        O      0.568250000000     0.236800000000     0.250000000000     0          
O        O      0.500000000000     0.139850000000     0.375000000000     0          
O        O      0.581400000000     0.162800000000     0.375000000000     0          
T        Si     0.582400000000     0.249100000000     0.300750000000     0          
T        Si     0.547950000000     0.179700000000     0.375000000000     0          
O        O      0.867800000000     0.132250000000     0.305775000000     0          
O        O      0.846850000000     0.054950000000     0.331575000000     0          
O        O      0.787100000000     0.074200000000     0.315500000000     0          
O        O      0.831450000000     0.068250000000     0.250000000000     0          
O        O      0.860150000000     0.000000000000     0.375000000000     0          
O        O      0.918600000000     0.081400000000     0.375000000000     0          
T        Si     0.833300000000     0.082400000000     0.300750000000     0          
T        Si     0.868250000000     0.047950000000     0.375000000000     0          
O        O      0.735550000000     0.367800000000     0.305775000000     0          
O        O      0.791900000000     0.346850000000     0.331575000000     0          
O        O      0.712900000000     0.287100000000     0.315500000000     0          
O        O      0.763200000000     0.331450000000     0.250000000000     0          
O        O      0.860150000000     0.360150000000     0.375000000000     0          
O        O      0.837200000000     0.418600000000     0.375000000000     0          
T        Si     0.750900000000     0.333300000000     0.300750000000     0          
T        Si     0.820300000000     0.368250000000     0.375000000000     0          
O        O      0.867750000000     0.235550000000     0.305775000000     0          
O        O      0.945050000000     0.291900000000     0.331575000000     0          
O        O      0.925800000000     0.212900000000     0.315500000000     0          
O        O      0.931750000000     0.263200000000     0.250000000000     0          
O        O      0.500000000000     0.360150000000     0.375000000000     0          
O        O      0.918600000000     0.337200000000     0.375000000000     0          
T        Si     0.917600000000     0.250900000000     0.300750000000     0          
T        Si     0.952050000000     0.320300000000     0.375000000000     0          
O        O      0.632200000000     0.367750000000     0.305775000000     0          
O        O      0.653150000000     0.445050000000     0.331575000000     0          
O        O      0.712900000000     0.425800000000     0.315500000000     0          
O        O      0.668550000000     0.431750000000     0.250000000000     0          
O        O      0.639850000000     0.000000000000     0.375000000000     0          
O        O      0.581400000000     0.418600000000     0.375000000000     0          
T        Si     0.666700000000     0.417600000000     0.300750000000     0          
T        Si     0.631750000000     0.452050000000     0.375000000000     0          
O        O      0.764450000000     0.132200000000     0.305775000000     0          
O        O      0.708100000000     0.153150000000     0.331575000000     0          
O        O      0.787100000000     0.212900000000     0.315500000000     0          
O        O      0.736800000000     0.168550000000     0.250000000000     0          
O        O      0.639850000000     0.139850000000     0.375000000000     0          
O        O      0.662800000000     0.081400000000     0.375000000000     0          
T        Si     0.749100000000     0.166700000000     0.300750000000     0          
T        Si     0.679700000000     0.131750000000     0.375000000000     0          
O        O      0.735550000000     0.367750000000     0.444225000000     0          
O        O      0.791900000000     0.445050000000     0.418425000000     0          
O        O      0.712900000000     0.425800000000     0.434500000000     0          
O        O      0.763200000000     0.431750000000     0.250000000000     0          
T        Si     0.750900000000     0.417600000000     0.449250000000     0          
T        Si     0.820300000000     0.452050000000     0.375000000000     0          
O        O      0.867800000000     0.235550000000     0.444225000000     0          
O        O      0.846850000000     0.291900000000     0.418425000000     0          
O        O      0.787100000000     0.212900000000     0.434500000000     0          
O        O      0.831450000000     0.263200000000     0.250000000000     0          
T        Si     0.833300000000     0.250900000000     0.449250000000     0          
T        Si     0.868250000000     0.320300000000     0.375000000000     0          
O        O      0.632250000000     0.367800000000     0.444225000000     0          
O        O      0.554950000000     0.346850000000     0.418425000000     0          
O        O      0.574200000000     0.287100000000     0.434500000000     0          
O        O      0.568250000000     0.331450000000     0.250000000000     0          
T        Si     0.582400000000     0.333300000000     0.449250000000     0          
T        Si     0.547950000000     0.368250000000     0.375000000000     0          
O        O      0.764450000000     0.132250000000     0.444225000000     0          
O        O      0.708100000000     0.054950000000     0.418425000000     0          
O        O      0.787100000000     0.074200000000     0.434500000000     0          
O        O      0.736800000000     0.068250000000     0.250000000000     0          
T        Si     0.749100000000     0.082400000000     0.449250000000     0          
T        Si     0.679700000000     0.047950000000     0.375000000000     0          
O        O      0.632200000000     0.264450000000     0.444225000000     0          
O        O      0.653150000000     0.208100000000     0.418425000000     0          
O        O      0.712900000000     0.287100000000     0.434500000000     0          
O        O      0.668550000000     0.236800000000     0.250000000000     0          
T        Si     0.666700000000     0.249100000000     0.449250000000     0          
T        Si     0.631750000000     0.179700000000     0.375000000000     0          
O        O      0.867750000000     0.132200000000     0.444225000000     0          
O        O      0.945050000000     0.153150000000     0.418425000000     0          
O        O      0.925800000000     0.212900000000     0.434500000000     0          
O        O      0.931750000000     0.168550000000     0.250000000000     0          
T        Si     0.917600000000     0.166700000000     0.449250000000     0          
T        Si     0.952050000000     0.131750000000     0.375000000000     0          
O        O      0.945050000000     0.291900000000     0.418425000000     0          
T        Si     0.917600000000     0.250900000000     0.449250000000     0          
O        O      0.653150000000     0.445050000000     0.418425000000     0          
T        Si     0.666700000000     0.417600000000     0.449250000000     0          
O        O      0.708100000000     0.153150000000     0.418425000000     0          
T        Si     0.749100000000     0.166700000000     0.449250000000     0          
O        O      0.554950000000     0.208100000000     0.418425000000     0          
T        Si     0.582400000000     0.249100000000     0.449250000000     0          
O        O      0.846850000000     0.054950000000     0.418425000000     0          
T        Si     0.833300000000     0.082400000000     0.449250000000     0          
O        O      0.791900000000     0.346850000000     0.418425000000     0          
T        Si     0.750900000000     0.333300000000     0.449250000000     0          
O        O      0.708100000000     0.054950000000     0.331575000000     0          
T        Si     0.749100000000     0.082400000000     0.300750000000     0          
O        O      0.653150000000     0.208100000000     0.331575000000     0          
T        Si     0.666700000000     0.249100000000     0.300750000000     0          
O        O      0.945050000000     0.153150000000     0.331575000000     0          
T        Si     0.917600000000     0.166700000000     0.300750000000     0          
O        O      0.791900000000     0.445050000000     0.331575000000     0          
T        Si     0.750900000000     0.417600000000     0.300750000000     0          
O        O      0.846850000000     0.291900000000     0.331575000000     0          
T        Si     0.833300000000     0.250900000000     0.300750000000     0          
O        O      0.554950000000     0.346850000000     0.331575000000     0          
T        Si     0.582400000000     0.333300000000     0.300750000000     0          
O        O      0.632250000000     0.264450000000     0.555775000000     0          
O        O      0.554950000000     0.208100000000     0.581575000000     0          
O        O      0.574200000000     0.287100000000     0.565500000000     0          
O        O      0.568250000000     0.236800000000     0.500000000000     0          
O        O      0.500000000000     0.139850000000     0.625000000000     0          
O        O      0.581400000000     0.162800000000     0.625000000000     0          
T        Si     0.582400000000     0.249100000000     0.550750000000     0          
T        Si     0.547950000000     0.179700000000     0.625000000000     0          
O        O      0.867800000000     0.132250000000     0.555775000000     0          
O        O      0.846850000000     0.054950000000     0.581575000000     0          
O        O      0.787100000000     0.074200000000     0.565500000000     0          
O        O      0.831450000000     0.068250000000     0.500000000000     0          
O        O      0.860150000000     0.000000000000     0.625000000000     0          
O        O      0.918600000000     0.081400000000     0.625000000000     0          
T        Si     0.833300000000     0.082400000000     0.550750000000     0          
T        Si     0.868250000000     0.047950000000     0.625000000000     0          
O        O      0.735550000000     0.367800000000     0.555775000000     0          
O        O      0.791900000000     0.346850000000     0.581575000000     0          
O        O      0.712900000000     0.287100000000     0.565500000000     0          
O        O      0.763200000000     0.331450000000     0.500000000000     0          
O        O      0.860150000000     0.360150000000     0.625000000000     0          
O        O      0.837200000000     0.418600000000     0.625000000000     0          
T        Si     0.750900000000     0.333300000000     0.550750000000     0          
T        Si     0.820300000000     0.368250000000     0.625000000000     0          
O        O      0.867750000000     0.235550000000     0.555775000000     0          
O        O      0.945050000000     0.291900000000     0.581575000000     0          
O        O      0.925800000000     0.212900000000     0.565500000000     0          
O        O      0.931750000000     0.263200000000     0.500000000000     0          
O        O      0.500000000000     0.360150000000     0.625000000000     0          
O        O      0.918600000000     0.337200000000     0.625000000000     0          
T        Si     0.917600000000     0.250900000000     0.550750000000     0          
T        Si     0.952050000000     0.320300000000     0.625000000000     0          
O        O      0.632200000000     0.367750000000     0.555775000000     0          
O        O      0.653150000000     0.445050000000     0.581575000000     0          
O        O      0.712900000000     0.425800000000     0.565500000000     0          
O        O      0.668550000000     0.431750000000     0.500000000000     0          
O        O      0.639850000000     0.000000000000     0.625000000000     0          
O        O      0.581400000000     0.418600000000     0.625000000000     0          
T        Si     0.666700000000     0.417600000000     0.550750000000     0          
T        Si     0.631750000000     0.452050000000     0.625000000000     0          
O        O      0.764450000000     0.132200000000     0.555775000000     0          
O        O      0.708100000000     0.153150000000     0.581575000000     0          
O        O      0.787100000000     0.212900000000     0.565500000000     0          
O        O      0.736800000000     0.168550000000     0.500000000000     0          
O        O      0.639850000000     0.139850000000     0.625000000000     0          
O        O      0.662800000000     0.081400000000     0.625000000000     0          
T        Si     0.749100000000     0.166700000000     0.550750000000     0          
T        Si     0.679700000000     0.131750000000     0.625000000000     0          
O        O      0.735550000000     0.367750000000     0.694225000000     0          
O        O      0.791900000000     0.445050000000     0.668425000000     0          
O        O      0.712900000000     0.425800000000     0.684500000000     0          
O        O      0.763200000000     0.431750000000     0.500000000000     0          
T        Si     0.750900000000     0.417600000000     0.699250000000     0          
T        Si     0.820300000000     0.452050000000     0.625000000000     0          
O        O      0.867800000000     0.235550000000     0.694225000000     0          
O        O      0.846850000000     0.291900000000     0.668425000000     0          
O        O      0.787100000000     0.212900000000     0.684500000000     0          
O        O      0.831450000000     0.263200000000     0.500000000000     0          
T        Si     0.833300000000     0.250900000000     0.699250000000     0          
T        Si     0.868250000000     0.320300000000     0.625000000000     0          
O        O      0.632250000000     0.367800000000     0.694225000000     0          
O        O      0.554950000000     0.346850000000     0.668425000000     0          
O        O      0.574200000000     0.287100000000     0.684500000000     0          
O        O      0.568250000000     0.331450000000     0.500000000000     0          
T        Si     0.582400000000     0.333300000000     0.699250000000     0          
T        Si     0.547950000000     0.368250000000     0.625000000000     0          
O        O      0.764450000000     0.132250000000     0.694225000000     0          
O        O      0.708100000000     0.054950000000     0.668425000000     0          
O        O      0.787100000000     0.074200000000     0.684500000000     0          
O        O      0.736800000000     0.068250000000     0.500000000000     0          
T        Si     0.749100000000     0.082400000000     0.699250000000     0          
T        Si     0.679700000000     0.047950000000     0.625000000000     0          
O        O      0.632200000000     0.264450000000     0.694225000000     0          
O        O      0.653150000000     0.208100000000     0.668425000000     0          
O        O      0.712900000000     0.287100000000     0.684500000000     0          
O        O      0.668550000000     0.236800000000     0.500000000000     0          
T        Si     0.666700000000     0.249100000000     0.699250000000     0          
T        Si     0.631750000000     0.179700000000     0.625000000000     0          
O        O      0.867750000000     0.132200000000     0.694225000000     0          
O        O      0.945050000000     0.153150000000     0.668425000000     0          
O        O      0.925800000000     0.212900000000     0.684500000000     0          
O        O      0.931750000000     0.168550000000     0.500000000000     0          
T        Si     0.917600000000     0.166700000000     0.699250000000     0          
T        Si     0.952050000000     0.131750000000     0.625000000000     0          
O        O      0.945050000000     0.291900000000     0.668425000000     0          
T        Si     0.917600000000     0.250900000000     0.699250000000     0          
O        O      0.653150000000     0.445050000000     0.668425000000     0          
T        Si     0.666700000000     0.417600000000     0.699250000000     0          
O        O      0.708100000000     0.153150000000     0.668425000000     0          
T        Si     0.749100000000     0.166700000000     0.699250000000     0          
O        O      0.554950000000     0.208100000000     0.668425000000     0          
T        Si     0.582400000000     0.249100000000     0.699250000000     0          
O        O      0.846850000000     0.054950000000     0.668425000000     0          
T        Si     0.833300000000     0.082400000000     0.699250000000     0          
O        O      0.791900000000     0.346850000000     0.668425000000     0          
T        Si     0.750900000000     0.333300000000     0.699250000000     0          
O        O      0.708100000000     0.054950000000     0.581575000000     0          
T        Si     0.749100000000     0.082400000000     0.550750000000     0          
O        O      0.653150000000     0.208100000000     0.581575000000     0          
T        Si     0.666700000000     0.249100000000     0.550750000000     0          
O        O      0.945050000000     0.153150000000     0.581575000000     0          
T        Si     0.917600000000     0.166700000000     0.550750000000     0          
O        O      0.791900000000     0.445050000000     0.581575000000     0          
T        Si     0.750900000000     0.417600000000     0.550750000000     0          
O        O      0.846850000000     0.291900000000     0.581575000000     0          
T        Si     0.833300000000     0.250900000000     0.550750000000     0          
O        O      0.554950000000     0.346850000000     0.581575000000     0          
T        Si     0.582400000000     0.333300000000     0.550750000000     0          
O        O      0.632250000000     0.264450000000     0.805775000000     0          
O        O      0.554950000000     0.208100000000     0.831575000000     0          
O        O      0.574200000000     0.287100000000     0.815500000000     0          
O        O      0.568250000000     0.236800000000     0.750000000000     0          
O        O      0.500000000000     0.139850000000     0.875000000000     0          
O        O      0.581400000000     0.162800000000     0.875000000000     0          
T        Si     0.582400000000     0.249100000000     0.800750000000     0          
T        Si     0.547950000000     0.179700000000     0.875000000000     0          
O        O      0.867800000000     0.132250000000     0.805775000000     0          
O        O      0.846850000000     0.054950000000     0.831575000000     0          
O        O      0.787100000000     0.074200000000     0.815500000000     0          
O        O      0.831450000000     0.068250000000     0.750000000000     0          
O        O      0.860150000000     0.000000000000     0.875000000000     0          
O        O      0.918600000000     0.081400000000     0.875000000000     0          
T        Si     0.833300000000     0.082400000000     0.800750000000     0          
T        Si     0.868250000000     0.047950000000     0.875000000000     0          
O        O      0.735550000000     0.367800000000     0.805775000000     0          
O        O      0.791900000000     0.346850000000     0.831575000000     0          
O        O      0.712900000000     0.287100000000     0.815500000000     0          
O        O      0.763200000000     0.331450000000     0.750000000000     0          
O        O      0.860150000000     0.360150000000     0.875000000000     0          
O        O      0.837200000000     0.418600000000     0.875000000000     0          
T        Si     0.750900000000     0.333300000000     0.800750000000     0          
T        Si     0.820300000000     0.368250000000     0.875000000000     0          
O        O      0.867750000000     0.235550000000     0.805775000000     0          
O        O      0.945050000000     0.291900000000     0.831575000000     0          
O        O      0.925800000000     0.212900000000     0.815500000000     0          
O        O      0.931750000000     0.263200000000     0.750000000000     0          
O        O      0.500000000000     0.360150000000     0.875000000000     0          
O        O      0.918600000000     0.337200000000     0.875000000000     0          
T        Si     0.917600000000     0.250900000000     0.800750000000     0          
T        Si     0.952050000000     0.320300000000     0.875000000000     0          
O        O      0.632200000000     0.367750000000     0.805775000000     0          
O        O      0.653150000000     0.445050000000     0.831575000000     0          
O        O      0.712900000000     0.425800000000     0.815500000000     0          
O        O      0.668550000000     0.431750000000     0.750000000000     0          
O        O      0.639850000000     0.000000000000     0.875000000000     0          
O        O      0.581400000000     0.418600000000     0.875000000000     0          
T        Si     0.666700000000     0.417600000000     0.800750000000     0          
T        Si     0.631750000000     0.452050000000     0.875000000000     0          
O        O      0.764450000000     0.132200000000     0.805775000000     0          
O        O      0.708100000000     0.153150000000     0.831575000000     0          
O        O      0.787100000000     0.212900000000     0.815500000000     0          
O        O      0.736800000000     0.168550000000     0.750000000000     0          
O        O      0.639850000000     0.139850000000     0.875000000000     0          
O        O      0.662800000000     0.081400000000     0.875000000000     0          
T        Si     0.749100000000     0.166700000000     0.800750000000     0          
T        Si     0.679700000000     0.131750000000     0.875000000000     0          
O        O      0.735550000000     0.367750000000     0.944225000000     0          
O        O      0.791900000000     0.445050000000     0.918425000000     0          
O        O      0.712900000000     0.425800000000     0.934500000000     0          
O        O      0.763200000000     0.431750000000     0.750000000000     0          
T        Si     0.750900000000     0.417600000000     0.949250000000     0          
T        Si     0.820300000000     0.452050000000     0.875000000000     0          
O        O      0.867800000000     0.235550000000     0.944225000000     0          
O        O      0.846850000000     0.291900000000     0.918425000000     0          
O        O      0.787100000000     0.212900000000     0.934500000000     0          
O        O      0.831450000000     0.263200000000     0.750000000000     0          
T        Si     0.833300000000     0.250900000000     0.949250000000     0          
T        Si     0.868250000000     0.320300000000     0.875000000000     0          
O        O      0.632250000000     0.367800000000     0.944225000000     0          
O        O      0.554950000000     0.346850000000     0.918425000000     0          
O        O      0.574200000000     0.287100000000     0.934500000000     0          
O        O      0.568250000000     0.331450000000     0.750000000000     0          
T        Si     0.582400000000     0.333300000000     0.949250000000     0          
T        Si     0.547950000000     0.368250000000     0.875000000000     0          
O        O      0.764450000000     0.132250000000     0.944225000000     0          
O        O      0.708100000000     0.054950000000     0.918425000000     0          
O        O      0.787100000000     0.074200000000     0.934500000000     0          
O        O      0.736800000000     0.068250000000     0.750000000000     0          
T        Si     0.749100000000     0.082400000000     0.949250000000     0          
T        Si     0.679700000000     0.047950000000     0.875000000000     0          
O        O      0.632200000000     0.264450000000     0.944225000000     0          
O        O      0.653150000000     0.208100000000     0.918425000000     0          
O        O      0.712900000000     0.287100000000     0.934500000000     0          
O        O      0.668550000000     0.236800000000     0.750000000000     0          
T        Si     0.666700000000     0.249100000000     0.949250000000     0          
T        Si     0.631750000000     0.179700000000     0.875000000000     0          
O        O      0.867750000000     0.132200000000     0.944225000000     0          
O        O      0.945050000000     0.153150000000     0.918425000000     0          
O        O      0.925800000000     0.212900000000     0.934500000000     0          
O        O      0.931750000000     0.168550000000     0.750000000000     0          
T        Si     0.917600000000     0.166700000000     0.949250000000     0          
T        Si     0.952050000000     0.131750000000     0.875000000000     0          
O        O      0.945050000000     0.291900000000     0.918425000000     0          
T        Si     0.917600000000     0.250900000000     0.949250000000     0          
O        O      0.653150000000     0.445050000000     0.918425000000     0          
T        Si     0.666700000000     0.417600000000     0.949250000000     0          
O        O      0.708100000000     0.153150000000     0.918425000000     0          
T        Si     0.749100000000     0.166700000000     0.949250000000     0          
O        O      0.554950000000     0.208100000000     0.918425000000     0          
T        Si     0.582400000000     0.249100000000     0.949250000000     0          
O        O      0.846850000000     0.054950000000     0.918425000000     0          
T        Si     0.833300000000     0.082400000000     0.949250000000     0          
O        O      0.791900000000     0.346850000000     0.918425000000     0          
T        Si     0.750900000000     0.333300000000     0.949250000000     0          
O        O      0.708100000000     0.054950000000     0.831575000000     0          
T        Si     0.749100000000     0.082400000000     0.800750000000     0          
O        O      0.653150000000     0.208100000000     0.831575000000     0          
T        Si     0.666700000000     0.249100000000     0.800750000000     0          
O        O      0.945050000000     0.153150000000     0.831575000000     0          
T        Si     0.917600000000     0.166700000000     0.800750000000     0          
O        O      0.791900000000     0.445050000000     0.831575000000     0          
T        Si     0.750900000000     0.417600000000     0.800750000000     0          
O        O      0.846850000000     0.291900000000     0.831575000000     0          
T        Si     0.833300000000     0.250900000000     0.800750000000     0          
O        O      0.554950000000     0.346850000000     0.831575000000     0          
T        Si     0.582400000000     0.333300000000     0.800750000000     0          
O        O      0.632250000000     0.764450000000     0.055775000000     0          
O        O      0.554950000000     0.708100000000     0.081575000000     0          
O        O      0.574200000000     0.787100000000     0.065500000000     0          
O        O      0.568250000000     0.736800000000     0.000000000000     0          
O        O      0.500000000000     0.639850000000     0.125000000000     0          
O        O      0.581400000000     0.662800000000     0.125000000000     0          
T        Si     0.582400000000     0.749100000000     0.050750000000     0          
T        Si     0.547950000000     0.679700000000     0.125000000000     0          
O        O      0.867800000000     0.632250000000     0.055775000000     0          
O        O      0.846850000000     0.554950000000     0.081575000000     0          
O        O      0.787100000000     0.574200000000     0.065500000000     0          
O        O      0.831450000000     0.568250000000     0.000000000000     0          
O        O      0.860150000000     0.500000000000     0.125000000000     0          
O        O      0.918600000000     0.581400000000     0.125000000000     0          
T        Si     0.833300000000     0.582400000000     0.050750000000     0          
T        Si     0.868250000000     0.547950000000     0.125000000000     0          
O        O      0.735550000000     0.867800000000     0.055775000000     0          
O        O      0.791900000000     0.846850000000     0.081575000000     0          
O        O      0.712900000000     0.787100000000     0.065500000000     0          
O        O      0.763200000000     0.831450000000     0.000000000000     0          
O        O      0.860150000000     0.860150000000     0.125000000000     0          
O        O      0.837200000000     0.918600000000     0.125000000000     0          
T        Si     0.750900000000     0.833300000000     0.050750000000     0          
T        Si     0.820300000000     0.868250000000     0.125000000000     0          
O        O      0.867750000000     0.735550000000     0.055775000000     0          
O        O      0.945050000000     0.791900000000     0.081575000000     0          
O        O      0.925800000000     0.712900000000     0.065500000000     0          
O        O      0.931750000000     0.763200000000     0.000000000000     0          
O        O      0.500000000000     0.860150000000     0.125000000000     0          
O        O      0.918600000000     0.837200000000     0.125000000000     0          
T        Si     0.917600000000     0.750900000000     0.050750000000     0          
T        Si     0.952050000000     0.820300000000     0.125000000000     0          
O        O      0.632200000000     0.867750000000     0.055775000000     0          
O        O      0.653150000000     0.945050000000     0.081575000000     0          
O        O      0.712900000000     0.925800000000     0.065500000000     0          
O        O      0.668550000000     0.931750000000     0.000000000000     0          
O        O      0.639850000000     0.500000000000     0.125000000000     0          
O        O      0.581400000000     0.918600000000     0.125000000000     0          
T        Si     0.666700000000     0.917600000000     0.050750000000     0          
T        Si     0.631750000000     0.952050000000     0.125000000000     0          
O        O      0.764450000000     0.632200000000     0.055775000000     0          
O        O      0.708100000000     0.653150000000     0.081575000000     0          
O        O      0.787100000000     0.712900000000     0.065500000000     0          
O        O      0.736800000000     0.668550000000     0.000000000000     0          
O        O      0.639850000000     0.639850000000     0.125000000000     0          
O        O      0.662800000000     0.581400000000     0.125000000000     0          
T        Si     0.749100000000     0.666700000000     0.050750000000     0          
T        Si     0.679700000000     0.631750000000     0.125000000000     0          
O        O      0.735550000000     0.867750000000     0.194225000000     0          
O        O      0.791900000000     0.945050000000     0.168425000000     0          
O        O      0.712900000000     0.925800000000     0.184500000000     0          
O        O      0.763200000000     0.931750000000     0.000000000000     0          
T        Si     0.750900000000     0.917600000000     0.199250000000     0          
T        Si     0.820300000000     0.952050000000     0.125000000000     0          
O        O      0.867800000000     0.735550000000     0.194225000000     0          
O        O      0.846850000000     0.791900000000     0.168425000000     0          
O        O      0.787100000000     0.712900000000     0.184500000000     0          
O        O      0.831450000000     0.763200000000     0.000000000000     0          
T        Si     0.833300000000     0.750900000000     0.199250000000     0          
T        Si     0.868250000000     0.820300000000     0.125000000000     0          
O        O      0.632250000000     0.867800000000     0.194225000000     0          
O        O      0.554950000000     0.846850000000     0.168425000000     0          
O        O      0.574200000000     0.787100000000     0.184500000000     0          
O        O      0.568250000000     0.831450000000     0.000000000000     0          
T        Si     0.582400000000     0.833300000000     0.199250000000     0          
T        Si     0.547950000000     0.868250000000     0.125000000000     0          
O        O      0.764450000000     0.632250000000     0.194225000000     0          
O        O      0.708100000000     0.554950000000     0.168425000000     0          
O        O      0.787100000000     0.574200000000     0.184500000000     0          
O        O      0.736800000000     0.568250000000     0.000000000000     0          
T        Si     0.749100000000     0.582400000000     0.199250000000     0          
T        Si     0.679700000000     0.547950000000     0.125000000000     0          
O        O      0.632200000000     0.764450000000     0.194225000000     0          
O        O      0.653150000000     0.708100000000     0.168425000000     0          
O        O      0.712900000000     0.787100000000     0.184500000000     0          
O        O      0.668550000000     0.736800000000     0.000000000000     0          
T        Si     0.666700000000     0.749100000000     0.199250000000     0          
T        Si     0.631750000000     0.679700000000     0.125000000000     0          
O        O      0.867750000000     0.632200000000     0.194225000000     0          
O        O      0.945050000000     0.653150000000     0.168425000000     0          
O        O      0.925800000000     0.712900000000     0.184500000000     0          
O        O      0.931750000000     0.668550000000     0.000000000000     0          
T        Si     0.917600000000     0.666700000000     0.199250000000     0          
T        Si     0.952050000000     0.631750000000     0.125000000000     0          
O        O      0.945050000000     0.791900000000     0.168425000000     0          
T        Si     0.917600000000     0.750900000000     0.199250000000     0          
O        O      0.653150000000     0.945050000000     0.168425000000     0          
T        Si     0.666700000000     0.917600000000     0.199250000000     0          
O        O      0.708100000000     0.653150000000     0.168425000000     0          
T        Si     0.749100000000     0.666700000000     0.199250000000     0          
O        O      0.554950000000     0.708100000000     0.168425000000     0          
T        Si     0.582400000000     0.749100000000     0.199250000000     0          
O        O      0.846850000000     0.554950000000     0.168425000000     0          
T        Si     0.833300000000     0.582400000000     0.199250000000     0          
O        O      0.791900000000     0.846850000000     0.168425000000     0          
T        Si     0.750900000000     0.833300000000     0.199250000000     0          
O        O      0.708100000000     0.554950000000     0.081575000000     0          
T        Si     0.749100000000     0.582400000000     0.050750000000     0          
O        O      0.653150000000     0.708100000000     0.081575000000     0          
T        Si     0.666700000000     0.749100000000     0.050750000000     0          
O        O      0.945050000000     0.653150000000     0.081575000000     0          
T        Si     0.917600000000     0.666700000000     0.050750000000     0          
O        O      0.791900000000     0.945050000000     0.081575000000     0          
T        Si     0.750900000000     0.917600000000     0.050750000000     0          
O        O      0.846850000000     0.791900000000     0.081575000000     0          
T        Si     0.833300000000     0.750900000000     0.050750000000     0          
O        O      0.554950000000     0.846850000000     0.081575000000     0          
T        Si     0.582400000000     0.833300000000     0.050750000000     0          
O        O      0.632250000000     0.764450000000     0.305775000000     0          
O        O      0.554950000000     0.708100000000     0.331575000000     0          
O        O      0.574200000000     0.787100000000     0.315500000000     0          
O        O      0.568250000000     0.736800000000     0.250000000000     0          
O        O      0.500000000000     0.639850000000     0.375000000000     0          
O        O      0.581400000000     0.662800000000     0.375000000000     0          
T        Si     0.582400000000     0.749100000000     0.300750000000     0          
T        Si     0.547950000000     0.679700000000     0.375000000000     0          
O        O      0.867800000000     0.632250000000     0.305775000000     0          
O        O      0.846850000000     0.554950000000     0.331575000000     0          
O        O      0.787100000000     0.574200000000     0.315500000000     0          
O        O      0.831450000000     0.568250000000     0.250000000000     0          
O        O      0.860150000000     0.500000000000     0.375000000000     0          
O        O      0.918600000000     0.581400000000     0.375000000000     0          
T        Si     0.833300000000     0.582400000000     0.300750000000     0          
T        Si     0.868250000000     0.547950000000     0.375000000000     0          
O        O      0.735550000000     0.867800000000     0.305775000000     0          
O        O      0.791900000000     0.846850000000     0.331575000000     0          
O        O      0.712900000000     0.787100000000     0.315500000000     0          
O        O      0.763200000000     0.831450000000     0.250000000000     0          
O        O      0.860150000000     0.860150000000     0.375000000000     0          
O        O      0.837200000000     0.918600000000     0.375000000000     0          
T        Si     0.750900000000     0.833300000000     0.300750000000     0          
T        Si     0.820300000000     0.868250000000     0.375000000000     0          
O        O      0.867750000000     0.735550000000     0.305775000000     0          
O        O      0.945050000000     0.791900000000     0.331575000000     0          
O        O      0.925800000000     0.712900000000     0.315500000000     0          
O        O      0.931750000000     0.763200000000     0.250000000000     0          
O        O      0.500000000000     0.860150000000     0.375000000000     0          
O        O      0.918600000000     0.837200000000     0.375000000000     0          
T        Si     0.917600000000     0.750900000000     0.300750000000     0          
T        Si     0.952050000000     0.820300000000     0.375000000000     0          
O        O      0.632200000000     0.867750000000     0.305775000000     0          
O        O      0.653150000000     0.945050000000     0.331575000000     0          
O        O      0.712900000000     0.925800000000     0.315500000000     0          
O        O      0.668550000000     0.931750000000     0.250000000000     0          
O        O      0.639850000000     0.500000000000     0.375000000000     0          
O        O      0.581400000000     0.918600000000     0.375000000000     0          
T        Si     0.666700000000     0.917600000000     0.300750000000     0          
T        Si     0.631750000000     0.952050000000     0.375000000000     0          
O        O      0.764450000000     0.632200000000     0.305775000000     0          
O        O      0.708100000000     0.653150000000     0.331575000000     0          
O        O      0.787100000000     0.712900000000     0.315500000000     0          
O        O      0.736800000000     0.668550000000     0.250000000000     0          
O        O      0.639850000000     0.639850000000     0.375000000000     0          
O        O      0.662800000000     0.581400000000     0.375000000000     0          
T        Si     0.749100000000     0.666700000000     0.300750000000     0          
T        Si     0.679700000000     0.631750000000     0.375000000000     0          
O        O      0.735550000000     0.867750000000     0.444225000000     0          
O        O      0.791900000000     0.945050000000     0.418425000000     0          
O        O      0.712900000000     0.925800000000     0.434500000000     0          
O        O      0.763200000000     0.931750000000     0.250000000000     0          
T        Si     0.750900000000     0.917600000000     0.449250000000     0          
T        Si     0.820300000000     0.952050000000     0.375000000000     0          
O        O      0.867800000000     0.735550000000     0.444225000000     0          
O        O      0.846850000000     0.791900000000     0.418425000000     0          
O        O      0.787100000000     0.712900000000     0.434500000000     0          
O        O      0.831450000000     0.763200000000     0.250000000000     0          
T        Si     0.833300000000     0.750900000000     0.449250000000     0          
T        Si     0.868250000000     0.820300000000     0.375000000000     0          
O        O      0.632250000000     0.867800000000     0.444225000000     0          
O        O      0.554950000000     0.846850000000     0.418425000000     0          
O        O      0.574200000000     0.787100000000     0.434500000000     0          
O        O      0.568250000000     0.831450000000     0.250000000000     0          
T        Si     0.582400000000     0.833300000000     0.449250000000     0          
T        Si     0.547950000000     0.868250000000     0.375000000000     0          
O        O      0.764450000000     0.632250000000     0.444225000000     0          
O        O      0.708100000000     0.554950000000     0.418425000000     0          
O        O      0.787100000000     0.574200000000     0.434500000000     0          
O        O      0.736800000000     0.568250000000     0.250000000000     0          
T        Si     0.749100000000     0.582400000000     0.449250000000     0          
T        Si     0.679700000000     0.547950000000     0.375000000000     0          
O        O      0.632200000000     0.764450000000     0.444225000000     0          
O        O      0.653150000000     0.708100000000     0.418425000000     0          
O        O      0.712900000000     0.787100000000     0.434500000000     0          
O        O      0.668550000000     0.736800000000     0.250000000000     0          
T        Si     0.666700000000     0.749100000000     0.449250000000     0          
T        Si     0.631750000000     0.679700000000     0.375000000000     0          
O        O      0.867750000000     0.632200000000     0.444225000000     0          
O        O      0.945050000000     0.653150000000     0.418425000000     0          
O        O      0.925800000000     0.712900000000     0.434500000000     0          
O        O      0.931750000000     0.668550000000     0.250000000000     0          
T        Si     0.917600000000     0.666700000000     0.449250000000     0          
T        Si     0.952050000000     0.631750000000     0.375000000000     0          
O        O      0.945050000000     0.791900000000     0.418425000000     0          
T        Si     0.917600000000     0.750900000000     0.449250000000     0          
O        O      0.653150000000     0.945050000000     0.418425000000     0          
T        Si     0.666700000000     0.917600000000     0.449250000000     0          
O        O      0.708100000000     0.653150000000     0.418425000000     0          
T        Si     0.749100000000     0.666700000000     0.449250000000     0          
O        O      0.554950000000     0.708100000000     0.418425000000     0          
T        Si     0.582400000000     0.749100000000     0.449250000000     0          
O        O      0.846850000000     0.554950000000     0.418425000000     0          
T        Si     0.833300000000     0.582400000000     0.449250000000     0          
O        O      0.791900000000     0.846850000000     0.418425000000     0          
T        Si     0.750900000000     0.833300000000     0.449250000000     0          
O        O      0.708100000000     0.554950000000     0.331575000000     0          
T        Si     0.749100000000     0.582400000000     0.300750000000     0          
O        O      0.653150000000     0.708100000000     0.331575000000     0          
T        Si     0.666700000000     0.749100000000     0.300750000000     0          
O        O      0.945050000000     0.653150000000     0.331575000000     0          
T        Si     0.917600000000     0.666700000000     0.300750000000     0          
O        O      0.791900000000     0.945050000000     0.331575000000     0          
T        Si     0.750900000000     0.917600000000     0.300750000000     0          
O        O      0.846850000000     0.791900000000     0.331575000000     0          
T        Si     0.833300000000     0.750900000000     0.300750000000     0          
O        O      0.554950000000     0.846850000000     0.331575000000     0          
T        Si     0.582400000000     0.833300000000     0.300750000000     0          
O        O      0.632250000000     0.764450000000     0.555775000000     0          
O        O      0.554950000000     0.708100000000     0.581575000000     0          
O        O      0.574200000000     0.787100000000     0.565500000000     0          
O        O      0.568250000000     0.736800000000     0.500000000000     0          
O        O      0.500000000000     0.639850000000     0.625000000000     0          
O        O      0.581400000000     0.662800000000     0.625000000000     0          
T        Si     0.582400000000     0.749100000000     0.550750000000     0          
T        Si     0.547950000000     0.679700000000     0.625000000000     0          
O        O      0.867800000000     0.632250000000     0.555775000000     0          
O        O      0.846850000000     0.554950000000     0.581575000000     0          
O        O      0.787100000000     0.574200000000     0.565500000000     0          
O        O      0.831450000000     0.568250000000     0.500000000000     0          
O        O      0.860150000000     0.500000000000     0.625000000000     0          
O        O      0.918600000000     0.581400000000     0.625000000000     0          
T        Si     0.833300000000     0.582400000000     0.550750000000     0          
T        Si     0.868250000000     0.547950000000     0.625000000000     0          
O        O      0.735550000000     0.867800000000     0.555775000000     0          
O        O      0.791900000000     0.846850000000     0.581575000000     0          
O        O      0.712900000000     0.787100000000     0.565500000000     0          
O        O      0.763200000000     0.831450000000     0.500000000000     0          
O        O      0.860150000000     0.860150000000     0.625000000000     0          
O        O      0.837200000000     0.918600000000     0.625000000000     0          
T        Si     0.750900000000     0.833300000000     0.550750000000     0          
T        Si     0.820300000000     0.868250000000     0.625000000000     0          
O        O      0.867750000000     0.735550000000     0.555775000000     0          
O        O      0.945050000000     0.791900000000     0.581575000000     0          
O        O      0.925800000000     0.712900000000     0.565500000000     0          
O        O      0.931750000000     0.763200000000     0.500000000000     0          
O        O      0.500000000000     0.860150000000     0.625000000000     0          
O        O      0.918600000000     0.837200000000     0.625000000000     0          
T        Si     0.917600000000     0.750900000000     0.550750000000     0          
T        Si     0.952050000000     0.820300000000     0.625000000000     0          
O        O      0.632200000000     0.867750000000     0.555775000000     0          
O        O      0.653150000000     0.945050000000     0.581575000000     0          
O        O      0.712900000000     0.925800000000     0.565500000000     0          
O        O      0.668550000000     0.931750000000     0.500000000000     0          
O        O      0.639850000000     0.500000000000     0.625000000000     0          
O        O      0.581400000000     0.918600000000     0.625000000000     0          
T        Si     0.666700000000     0.917600000000     0.550750000000     0          
T        Si     0.631750000000     0.952050000000     0.625000000000     0          
O        O      0.764450000000     0.632200000000     0.555775000000     0          
O        O      0.708100000000     0.653150000000     0.581575000000     0          
O        O      0.787100000000     0.712900000000     0.565500000000     0          
O        O      0.736800000000     0.668550000000     0.500000000000     0          
O        O      0.639850000000     0.639850000000     0.625000000000     0          
O        O      0.662800000000     0.581400000000     0.625000000000     0          
T        Si     0.749100000000     0.666700000000     0.550750000000     0          
T        Si     0.679700000000     0.631750000000     0.625000000000     0          
O        O      0.735550000000     0.867750000000     0.694225000000     0          
O        O      0.791900000000     0.945050000000     0.668425000000     0          
O        O      0.712900000000     0.925800000000     0.684500000000     0          
O        O      0.763200000000     0.931750000000     0.500000000000     0          
T        Si     0.750900000000     0.917600000000     0.699250000000     0          
T        Si     0.820300000000     0.952050000000     0.625000000000     0          
O        O      0.867800000000     0.735550000000     0.694225000000     0          
O        O      0.846850000000     0.791900000000     0.668425000000     0          
O        O      0.787100000000     0.712900000000     0.684500000000     0          
O        O      0.831450000000     0.763200000000     0.500000000000     0          
T        Si     0.833300000000     0.750900000000     0.699250000000     0          
T        Si     0.868250000000     0.820300000000     0.625000000000     0          
O        O      0.632250000000     0.867800000000     0.694225000000     0          
O        O      0.554950000000     0.846850000000     0.668425000000     0          
O        O      0.574200000000     0.787100000000     0.684500000000     0          
O        O      0.568250000000     0.831450000000     0.500000000000     0          
T        Si     0.582400000000     0.833300000000     0.699250000000     0          
T        Si     0.547950000000     0.868250000000     0.625000000000     0          
O        O      0.764450000000     0.632250000000     0.694225000000     0          
O        O      0.708100000000     0.554950000000     0.668425000000     0          
O        O      0.787100000000     0.574200000000     0.684500000000     0          
O        O      0.736800000000     0.568250000000     0.500000000000     0          
T        Si     0.749100000000     0.582400000000     0.699250000000     0          
T        Si     0.679700000000     0.547950000000     0.625000000000     0          
O        O      0.632200000000     0.764450000000     0.694225000000     0          
O        O      0.653150000000     0.708100000000     0.668425000000     0          
O        O      0.712900000000     0.787100000000     0.684500000000     0          
O        O      0.668550000000     0.736800000000     0.500000000000     0          
T        Si     0.666700000000     0.749100000000     0.699250000000     0          
T        Si     0.631750000000     0.679700000000     0.625000000000     0          
O        O      0.867750000000     0.632200000000     0.694225000000     0          
O        O      0.945050000000     0.653150000000     0.668425000000     0          
O        O      0.925800000000     0.712900000000     0.684500000000     0          
O        O      0.931750000000     0.668550000000     0.500000000000     0          
T        Si     0.917600000000     0.666700000000     0.699250000000     0          
T        Si     0.952050000000     0.631750000000     0.625000000000     0          
O        O      0.945050000000     0.791900000000     0.668425000000     0          
T        Si     0.917600000000     0.750900000000     0.699250000000     0          
O        O      0.653150000000     0.945050000000     0.668425000000     0          
T        Si     0.666700000000     0.917600000000     0.699250000000     0          
O        O      0.708100000000     0.653150000000     0.668425000000     0          
T        Si     0.749100000000     0.666700000000     0.699250000000     0          
O        O      0.554950000000     0.708100000000     0.668425000000     0          
T        Si     0.582400000000     0.749100000000     0.699250000000     0          
O        O      0.846850000000     0.554950000000     0.668425000000     0          
T        Si     0.833300000000     0.582400000000     0.699250000000     0          
O        O      0.791900000000     0.846850000000     0.668425000000     0          
T        Si     0.750900000000     0.833300000000     0.699250000000     0          
O        O      0.708100000000     0.554950000000     0.581575000000     0          
T        Si     0.749100000000     0.582400000000     0.550750000000     0          
O        O      0.653150000000     0.708100000000     0.581575000000     0          
T        Si     0.666700000000     0.749100000000     0.550750000000     0          
O        O      0.945050000000     0.653150000000     0.581575000000     0          
T        Si     0.917600000000     0.666700000000     0.550750000000     0          
O        O      0.791900000000     0.945050000000     0.581575000000     0          
T        Si     0.750900000000     0.917600000000     0.550750000000     0          
O        O      0.846850000000     0.791900000000     0.581575000000     0          
T        Si     0.833300000000     0.750900000000     0.550750000000     0          
O        O      0.554950000000     0.846850000000     0.581575000000     0          
T        Si     0.582400000000     0.833300000000     0.550750000000     0          
O        O      0.632250000000     0.764450000000     0.805775000000     0          
O        O      0.554950000000     0.708100000000     0.831575000000     0          
O        O      0.574200000000     0.787100000000     0.815500000000     0          
O        O      0.568250000000     0.736800000000     0.750000000000     0          
O        O      0.500000000000     0.639850000000     0.875000000000     0          
O        O      0.581400000000     0.662800000000     0.875000000000     0          
T        Si     0.582400000000     0.749100000000     0.800750000000     0          
T        Si     0.547950000000     0.679700000000     0.875000000000     0          
O        O      0.867800000000     0.632250000000     0.805775000000     0          
O        O      0.846850000000     0.554950000000     0.831575000000     0          
O        O      0.787100000000     0.574200000000     0.815500000000     0          
O        O      0.831450000000     0.568250000000     0.750000000000     0          
O        O      0.860150000000     0.500000000000     0.875000000000     0          
O        O      0.918600000000     0.581400000000     0.875000000000     0          
T        Si     0.833300000000     0.582400000000     0.800750000000     0          
T        Si     0.868250000000     0.547950000000     0.875000000000     0          
O        O      0.735550000000     0.867800000000     0.805775000000     0          
O        O      0.791900000000     0.846850000000     0.831575000000     0          
O        O      0.712900000000     0.787100000000     0.815500000000     0          
O        O      0.763200000000     0.831450000000     0.750000000000     0          
O        O      0.860150000000     0.860150000000     0.875000000000     0          
O        O      0.837200000000     0.918600000000     0.875000000000     0          
T        Si     0.750900000000     0.833300000000     0.800750000000     0          
T        Si     0.820300000000     0.868250000000     0.875000000000     0          
O        O      0.867750000000     0.735550000000     0.805775000000     0          
O        O      0.945050000000     0.791900000000     0.831575000000     0          
O        O      0.925800000000     0.712900000000     0.815500000000     0          
O        O      0.931750000000     0.763200000000     0.750000000000     0          
O        O      0.500000000000     0.860150000000     0.875000000000     0          
O        O      0.918600000000     0.837200000000     0.875000000000     0          
T        Si     0.917600000000     0.750900000000     0.800750000000     0          
T        Si     0.952050000000     0.820300000000     0.875000000000     0          
O        O      0.632200000000     0.867750000000     0.805775000000     0          
O        O      0.653150000000     0.945050000000     0.831575000000     0          
O        O      0.712900000000     0.925800000000     0.815500000000     0          
O        O      0.668550000000     0.931750000000     0.750000000000     0          
O        O      0.639850000000     0.500000000000     0.875000000000     0          
O        O      0.581400000000     0.918600000000     0.875000000000     0          
T        Si     0.666700000000     0.917600000000     0.800750000000     0          
T        Si     0.631750000000     0.952050000000     0.875000000000     0          
O        O      0.764450000000     0.632200000000     0.805775000000     0          
O        O      0.708100000000     0.653150000000     0.831575000000     0          
O        O      0.787100000000     0.712900000000     0.815500000000     0          
O        O      0.736800000000     0.668550000000     0.750000000000     0          
O        O      0.639850000000     0.639850000000     0.875000000000     0          
O        O      0.662800000000     0.581400000000     0.875000000000     0          
T        Si     0.749100000000     0.666700000000     0.800750000000     0          
T        Si     0.679700000000     0.631750000000     0.875000000000     0          
O        O      0.735550000000     0.867750000000     0.944225000000     0          
O        O      0.791900000000     0.945050000000     0.918425000000     0          
O        O      0.712900000000     0.925800000000     0.934500000000     0          
O        O      0.763200000000     0.931750000000     0.750000000000     0          
T        Si     0.750900000000     0.917600000000     0.949250000000     0          
T        Si     0.820300000000     0.952050000000     0.875000000000     0          
O        O      0.867800000000     0.735550000000     0.944225000000     0          
O        O      0.846850000000     0.791900000000     0.918425000000     0          
O        O      0.787100000000     0.712900000000     0.934500000000     0          
O        O      0.831450000000     0.763200000000     0.750000000000     0          
T        Si     0.833300000000     0.750900000000     0.949250000000     0          
T        Si     0.868250000000     0.820300000000     0.875000000000     0          
O        O      0.632250000000     0.867800000000     0.944225000000     0          
O        O      0.554950000000     0.846850000000     0.918425000000     0          
O        O      0.574200000000     0.787100000000     0.934500000000     0          
O        O      0.568250000000     0.831450000000     0.750000000000     0          
T        Si     0.582400000000     0.833300000000     0.949250000000     0          
T        Si     0.547950000000     0.868250000000     0.875000000000     0          
O        O      0.764450000000     0.632250000000     0.944225000000     0          
O        O      0.708100000000     0.554950000000     0.918425000000     0          
O        O      0.787100000000     0.574200000000     0.934500000000     0          
O        O      0.736800000000     0.568250000000     0.750000000000     0          
T        Si     0.749100000000     0.582400000000     0.949250000000     0          
T        Si     0.679700000000     0.547950000000     0.875000000000     0          
O        O      0.632200000000     0.764450000000     0.944225000000     0          
O        O      0.653150000000     0.708100000000     0.918425000000     0          
O        O      0.712900000000     0.787100000000     0.934500000000     0          
O        O      0.668550000000     0.736800000000     0.750000000000     0          
T        Si     0.666700000000     0.749100000000     0.949250000000     0          
T        Si     0.631750000000     0.679700000000     0.875000000000     0          
O        O      0.867750000000     0.632200000000     0.944225000000     0          
O        O      0.945050000000     0.653150000000     0.918425000000     0          
O        O      0.925800000000     0.712900000000     0.934500000000     0          
O        O      0.931750000000     0.668550000000     0.750000000000     0          
T        Si     0.917600000000     0.666700000000     0.949250000000     0          
T        Si     0.952050000000     0.631750000000     0.875000000000     0          
O        O      0.945050000000     0.791900000000     0.918425000000     0          
T        Si     0.917600000000     0.750900000000     0.949250000000     0          
O        O      0.653150000000     0.945050000000     0.918425000000     0          
T        Si     0.666700000000     0.917600000000     0.949250000000     0          
O        O      0.708100000000     0.653150000000     0.918425000000     0          
T        Si     0.749100000000     0.666700000000     0.949250000000     0          
O        O      0.554950000000     0.708100000000     0.918425000000     0          
T        Si     0.582400000000     0.749100000000     0.949250000000     0          
O        O      0.846850000000     0.554950000000     0.918425000000     0          
T        Si     0.833300000000     0.582400000000     0.949250000000     0          
O        O      0.791900000000     0.846850000000     0.918425000000     0          
T        Si     0.750900000000     0.833300000000     0.949250000000     0          
O        O      0.708100000000     0.554950000000     0.831575000000     0          
T        Si     0.749100000000     0.582400000000     0.800750000000     0          
O        O      0.653150000000     0.708100000000     0.831575000000     0          
T        Si     0.666700000000     0.749100000000     0.800750000000     0          
O        O      0.945050000000     0.653150000000     0.831575000000     0          
T        Si     0.917600000000     0.666700000000     0.800750000000     0          
O        O      0.791900000000     0.945050000000     0.831575000000     0          
T        Si     0.750900000000     0.917600000000     0.800750000000     0          
O        O      0.846850000000     0.791900000000     0.831575000000     0          
T        Si     0.833300000000     0.750900000000     0.800750000000     0          
O        O      0.554950000000     0.846850000000     0.831575000000     0          
T        Si     0.582400000000     0.833300000000     0.800750000000     0          


