data_zeolite

_audit_creation_method RASPA-1.0
_audit_creation_date 2021-1-3
_audit_author_name ''

_cell_length_a    28.3
_cell_length_b    28.3
_cell_length_c    27.069
_cell_angle_alpha 90
_cell_angle_beta  90
_cell_angle_gamma 90
_cell_volume      21679.3

_symmetry_cell_setting          tetragonal
_symmetry_space_group_name_Hall 'P 1'
_symmetry_space_group_name_H-M  'P 1'
_symmetry_Int_Tables_number     1

_symmetry_equiv_pos_as_xyz 'x,y,z'

loop_
_atom_site_label
_atom_site_type_symbol
_atom_site_fract_x
_atom_site_fract_y
_atom_site_fract_z
_atom_site_charge
O        O      0.171425000000     0.078575000000     0.083333333333     0          
O        O      0.181450000000     0.125000000000     0.000000000000     0          
O        O      0.000000000000     0.125000000000     0.065866666667     0          
T        Si     0.193725000000     0.125000000000     0.058000000000     0          
O        O      0.171425000000     0.171425000000     0.250000000000     0          
O        O      0.125000000000     0.181450000000     0.166666666667     0          
O        O      0.125000000000     0.000000000000     0.232533333333     0          
T        Si     0.125000000000     0.193725000000     0.224666666667     0          
O        O      0.078575000000     0.171425000000     0.083333333333     0          
O        O      0.068550000000     0.125000000000     0.000000000000     0          
T        Si     0.056275000000     0.125000000000     0.058000000000     0          
O        O      0.078575000000     0.078575000000     0.250000000000     0          
O        O      0.125000000000     0.068550000000     0.166666666667     0          
T        Si     0.125000000000     0.056275000000     0.224666666667     0          
O        O      0.000000000000     0.125000000000     0.267466666667     0          
T        Si     0.193725000000     0.125000000000     0.275333333333     0          
O        O      0.125000000000     0.000000000000     0.100800000000     0          
T        Si     0.125000000000     0.193725000000     0.108666666667     0          
T        Si     0.056275000000     0.125000000000     0.275333333333     0          
T        Si     0.125000000000     0.056275000000     0.108666666667     0          
O        O      0.078575000000     0.171425000000     0.250000000000     0          
O        O      0.078575000000     0.078575000000     0.083333333333     0          
O        O      0.171425000000     0.078575000000     0.250000000000     0          
O        O      0.171425000000     0.171425000000     0.083333333333     0          
O        O      0.171425000000     0.078575000000     0.416666666667     0          
O        O      0.181450000000     0.125000000000     0.333333333333     0          
O        O      0.000000000000     0.125000000000     0.399200000000     0          
T        Si     0.193725000000     0.125000000000     0.391333333333     0          
O        O      0.171425000000     0.171425000000     0.583333333333     0          
O        O      0.125000000000     0.181450000000     0.500000000000     0          
O        O      0.125000000000     0.000000000000     0.565866666667     0          
T        Si     0.125000000000     0.193725000000     0.558000000000     0          
O        O      0.078575000000     0.171425000000     0.416666666667     0          
O        O      0.068550000000     0.125000000000     0.333333333333     0          
T        Si     0.056275000000     0.125000000000     0.391333333333     0          
O        O      0.078575000000     0.078575000000     0.583333333333     0          
O        O      0.125000000000     0.068550000000     0.500000000000     0          
T        Si     0.125000000000     0.056275000000     0.558000000000     0          
O        O      0.000000000000     0.125000000000     0.600800000000     0          
T        Si     0.193725000000     0.125000000000     0.608666666667     0          
O        O      0.125000000000     0.000000000000     0.434133333333     0          
T        Si     0.125000000000     0.193725000000     0.442000000000     0          
T        Si     0.056275000000     0.125000000000     0.608666666667     0          
T        Si     0.125000000000     0.056275000000     0.442000000000     0          
O        O      0.078575000000     0.171425000000     0.583333333333     0          
O        O      0.078575000000     0.078575000000     0.416666666667     0          
O        O      0.171425000000     0.078575000000     0.583333333333     0          
O        O      0.171425000000     0.171425000000     0.416666666667     0          
O        O      0.171425000000     0.078575000000     0.750000000000     0          
O        O      0.181450000000     0.125000000000     0.666666666667     0          
O        O      0.000000000000     0.125000000000     0.732533333333     0          
T        Si     0.193725000000     0.125000000000     0.724666666667     0          
O        O      0.171425000000     0.171425000000     0.916666666667     0          
O        O      0.125000000000     0.181450000000     0.833333333333     0          
O        O      0.125000000000     0.000000000000     0.899200000000     0          
T        Si     0.125000000000     0.193725000000     0.891333333333     0          
O        O      0.078575000000     0.171425000000     0.750000000000     0          
O        O      0.068550000000     0.125000000000     0.666666666667     0          
T        Si     0.056275000000     0.125000000000     0.724666666667     0          
O        O      0.078575000000     0.078575000000     0.916666666667     0          
O        O      0.125000000000     0.068550000000     0.833333333333     0          
T        Si     0.125000000000     0.056275000000     0.891333333333     0          
O        O      0.000000000000     0.125000000000     0.934133333333     0          
T        Si     0.193725000000     0.125000000000     0.942000000000     0          
O        O      0.125000000000     0.000000000000     0.767466666667     0          
T        Si     0.125000000000     0.193725000000     0.775333333333     0          
T        Si     0.056275000000     0.125000000000     0.942000000000     0          
T        Si     0.125000000000     0.056275000000     0.775333333333     0          
O        O      0.078575000000     0.171425000000     0.916666666667     0          
O        O      0.078575000000     0.078575000000     0.750000000000     0          
O        O      0.171425000000     0.078575000000     0.916666666667     0          
O        O      0.171425000000     0.171425000000     0.750000000000     0          
O        O      0.171425000000     0.328575000000     0.083333333333     0          
O        O      0.181450000000     0.375000000000     0.000000000000     0          
O        O      0.000000000000     0.375000000000     0.065866666667     0          
T        Si     0.193725000000     0.375000000000     0.058000000000     0          
O        O      0.171425000000     0.421425000000     0.250000000000     0          
O        O      0.125000000000     0.431450000000     0.166666666667     0          
O        O      0.125000000000     0.250000000000     0.232533333333     0          
T        Si     0.125000000000     0.443725000000     0.224666666667     0          
O        O      0.078575000000     0.421425000000     0.083333333333     0          
O        O      0.068550000000     0.375000000000     0.000000000000     0          
T        Si     0.056275000000     0.375000000000     0.058000000000     0          
O        O      0.078575000000     0.328575000000     0.250000000000     0          
O        O      0.125000000000     0.318550000000     0.166666666667     0          
T        Si     0.125000000000     0.306275000000     0.224666666667     0          
O        O      0.000000000000     0.375000000000     0.267466666667     0          
T        Si     0.193725000000     0.375000000000     0.275333333333     0          
O        O      0.125000000000     0.250000000000     0.100800000000     0          
T        Si     0.125000000000     0.443725000000     0.108666666667     0          
T        Si     0.056275000000     0.375000000000     0.275333333333     0          
T        Si     0.125000000000     0.306275000000     0.108666666667     0          
O        O      0.078575000000     0.421425000000     0.250000000000     0          
O        O      0.078575000000     0.328575000000     0.083333333333     0          
O        O      0.171425000000     0.328575000000     0.250000000000     0          
O        O      0.171425000000     0.421425000000     0.083333333333     0          
O        O      0.171425000000     0.328575000000     0.416666666667     0          
O        O      0.181450000000     0.375000000000     0.333333333333     0          
O        O      0.000000000000     0.375000000000     0.399200000000     0          
T        Si     0.193725000000     0.375000000000     0.391333333333     0          
O        O      0.171425000000     0.421425000000     0.583333333333     0          
O        O      0.125000000000     0.431450000000     0.500000000000     0          
O        O      0.125000000000     0.250000000000     0.565866666667     0          
T        Si     0.125000000000     0.443725000000     0.558000000000     0          
O        O      0.078575000000     0.421425000000     0.416666666667     0          
O        O      0.068550000000     0.375000000000     0.333333333333     0          
T        Si     0.056275000000     0.375000000000     0.391333333333     0          
O        O      0.078575000000     0.328575000000     0.583333333333     0          
O        O      0.125000000000     0.318550000000     0.500000000000     0          
T        Si     0.125000000000     0.306275000000     0.558000000000     0          
O        O      0.000000000000     0.375000000000     0.600800000000     0          
T        Si     0.193725000000     0.375000000000     0.608666666667     0          
O        O      0.125000000000     0.250000000000     0.434133333333     0          
T        Si     0.125000000000     0.443725000000     0.442000000000     0          
T        Si     0.056275000000     0.375000000000     0.608666666667     0          
T        Si     0.125000000000     0.306275000000     0.442000000000     0          
O        O      0.078575000000     0.421425000000     0.583333333333     0          
O        O      0.078575000000     0.328575000000     0.416666666667     0          
O        O      0.171425000000     0.328575000000     0.583333333333     0          
O        O      0.171425000000     0.421425000000     0.416666666667     0          
O        O      0.171425000000     0.328575000000     0.750000000000     0          
O        O      0.181450000000     0.375000000000     0.666666666667     0          
O        O      0.000000000000     0.375000000000     0.732533333333     0          
T        Si     0.193725000000     0.375000000000     0.724666666667     0          
O        O      0.171425000000     0.421425000000     0.916666666667     0          
O        O      0.125000000000     0.431450000000     0.833333333333     0          
O        O      0.125000000000     0.250000000000     0.899200000000     0          
T        Si     0.125000000000     0.443725000000     0.891333333333     0          
O        O      0.078575000000     0.421425000000     0.750000000000     0          
O        O      0.068550000000     0.375000000000     0.666666666667     0          
T        Si     0.056275000000     0.375000000000     0.724666666667     0          
O        O      0.078575000000     0.328575000000     0.916666666667     0          
O        O      0.125000000000     0.318550000000     0.833333333333     0          
T        Si     0.125000000000     0.306275000000     0.891333333333     0          
O        O      0.000000000000     0.375000000000     0.934133333333     0          
T        Si     0.193725000000     0.375000000000     0.942000000000     0          
O        O      0.125000000000     0.250000000000     0.767466666667     0          
T        Si     0.125000000000     0.443725000000     0.775333333333     0          
T        Si     0.056275000000     0.375000000000     0.942000000000     0          
T        Si     0.125000000000     0.306275000000     0.775333333333     0          
O        O      0.078575000000     0.421425000000     0.916666666667     0          
O        O      0.078575000000     0.328575000000     0.750000000000     0          
O        O      0.171425000000     0.328575000000     0.916666666667     0          
O        O      0.171425000000     0.421425000000     0.750000000000     0          
O        O      0.171425000000     0.578575000000     0.083333333333     0          
O        O      0.181450000000     0.625000000000     0.000000000000     0          
O        O      0.000000000000     0.625000000000     0.065866666667     0          
T        Si     0.193725000000     0.625000000000     0.058000000000     0          
O        O      0.171425000000     0.671425000000     0.250000000000     0          
O        O      0.125000000000     0.681450000000     0.166666666667     0          
O        O      0.125000000000     0.500000000000     0.232533333333     0          
T        Si     0.125000000000     0.693725000000     0.224666666667     0          
O        O      0.078575000000     0.671425000000     0.083333333333     0          
O        O      0.068550000000     0.625000000000     0.000000000000     0          
T        Si     0.056275000000     0.625000000000     0.058000000000     0          
O        O      0.078575000000     0.578575000000     0.250000000000     0          
O        O      0.125000000000     0.568550000000     0.166666666667     0          
T        Si     0.125000000000     0.556275000000     0.224666666667     0          
O        O      0.000000000000     0.625000000000     0.267466666667     0          
T        Si     0.193725000000     0.625000000000     0.275333333333     0          
O        O      0.125000000000     0.500000000000     0.100800000000     0          
T        Si     0.125000000000     0.693725000000     0.108666666667     0          
T        Si     0.056275000000     0.625000000000     0.275333333333     0          
T        Si     0.125000000000     0.556275000000     0.108666666667     0          
O        O      0.078575000000     0.671425000000     0.250000000000     0          
O        O      0.078575000000     0.578575000000     0.083333333333     0          
O        O      0.171425000000     0.578575000000     0.250000000000     0          
O        O      0.171425000000     0.671425000000     0.083333333333     0          
O        O      0.171425000000     0.578575000000     0.416666666667     0          
O        O      0.181450000000     0.625000000000     0.333333333333     0          
O        O      0.000000000000     0.625000000000     0.399200000000     0          
T        Si     0.193725000000     0.625000000000     0.391333333333     0          
O        O      0.171425000000     0.671425000000     0.583333333333     0          
O        O      0.125000000000     0.681450000000     0.500000000000     0          
O        O      0.125000000000     0.500000000000     0.565866666667     0          
T        Si     0.125000000000     0.693725000000     0.558000000000     0          
O        O      0.078575000000     0.671425000000     0.416666666667     0          
O        O      0.068550000000     0.625000000000     0.333333333333     0          
T        Si     0.056275000000     0.625000000000     0.391333333333     0          
O        O      0.078575000000     0.578575000000     0.583333333333     0          
O        O      0.125000000000     0.568550000000     0.500000000000     0          
T        Si     0.125000000000     0.556275000000     0.558000000000     0          
O        O      0.000000000000     0.625000000000     0.600800000000     0          
T        Si     0.193725000000     0.625000000000     0.608666666667     0          
O        O      0.125000000000     0.500000000000     0.434133333333     0          
T        Si     0.125000000000     0.693725000000     0.442000000000     0          
T        Si     0.056275000000     0.625000000000     0.608666666667     0          
T        Si     0.125000000000     0.556275000000     0.442000000000     0          
O        O      0.078575000000     0.671425000000     0.583333333333     0          
O        O      0.078575000000     0.578575000000     0.416666666667     0          
O        O      0.171425000000     0.578575000000     0.583333333333     0          
O        O      0.171425000000     0.671425000000     0.416666666667     0          
O        O      0.171425000000     0.578575000000     0.750000000000     0          
O        O      0.181450000000     0.625000000000     0.666666666667     0          
O        O      0.000000000000     0.625000000000     0.732533333333     0          
T        Si     0.193725000000     0.625000000000     0.724666666667     0          
O        O      0.171425000000     0.671425000000     0.916666666667     0          
O        O      0.125000000000     0.681450000000     0.833333333333     0          
O        O      0.125000000000     0.500000000000     0.899200000000     0          
T        Si     0.125000000000     0.693725000000     0.891333333333     0          
O        O      0.078575000000     0.671425000000     0.750000000000     0          
O        O      0.068550000000     0.625000000000     0.666666666667     0          
T        Si     0.056275000000     0.625000000000     0.724666666667     0          
O        O      0.078575000000     0.578575000000     0.916666666667     0          
O        O      0.125000000000     0.568550000000     0.833333333333     0          
T        Si     0.125000000000     0.556275000000     0.891333333333     0          
O        O      0.000000000000     0.625000000000     0.934133333333     0          
T        Si     0.193725000000     0.625000000000     0.942000000000     0          
O        O      0.125000000000     0.500000000000     0.767466666667     0          
T        Si     0.125000000000     0.693725000000     0.775333333333     0          
T        Si     0.056275000000     0.625000000000     0.942000000000     0          
T        Si     0.125000000000     0.556275000000     0.775333333333     0          
O        O      0.078575000000     0.671425000000     0.916666666667     0          
O        O      0.078575000000     0.578575000000     0.750000000000     0          
O        O      0.171425000000     0.578575000000     0.916666666667     0          
O        O      0.171425000000     0.671425000000     0.750000000000     0          
O        O      0.171425000000     0.828575000000     0.083333333333     0          
O        O      0.181450000000     0.875000000000     0.000000000000     0          
O        O      0.000000000000     0.875000000000     0.065866666667     0          
T        Si     0.193725000000     0.875000000000     0.058000000000     0          
O        O      0.171425000000     0.921425000000     0.250000000000     0          
O        O      0.125000000000     0.931450000000     0.166666666667     0          
O        O      0.125000000000     0.750000000000     0.232533333333     0          
T        Si     0.125000000000     0.943725000000     0.224666666667     0          
O        O      0.078575000000     0.921425000000     0.083333333333     0          
O        O      0.068550000000     0.875000000000     0.000000000000     0          
T        Si     0.056275000000     0.875000000000     0.058000000000     0          
O        O      0.078575000000     0.828575000000     0.250000000000     0          
O        O      0.125000000000     0.818550000000     0.166666666667     0          
T        Si     0.125000000000     0.806275000000     0.224666666667     0          
O        O      0.000000000000     0.875000000000     0.267466666667     0          
T        Si     0.193725000000     0.875000000000     0.275333333333     0          
O        O      0.125000000000     0.750000000000     0.100800000000     0          
T        Si     0.125000000000     0.943725000000     0.108666666667     0          
T        Si     0.056275000000     0.875000000000     0.275333333333     0          
T        Si     0.125000000000     0.806275000000     0.108666666667     0          
O        O      0.078575000000     0.921425000000     0.250000000000     0          
O        O      0.078575000000     0.828575000000     0.083333333333     0          
O        O      0.171425000000     0.828575000000     0.250000000000     0          
O        O      0.171425000000     0.921425000000     0.083333333333     0          
O        O      0.171425000000     0.828575000000     0.416666666667     0          
O        O      0.181450000000     0.875000000000     0.333333333333     0          
O        O      0.000000000000     0.875000000000     0.399200000000     0          
T        Si     0.193725000000     0.875000000000     0.391333333333     0          
O        O      0.171425000000     0.921425000000     0.583333333333     0          
O        O      0.125000000000     0.931450000000     0.500000000000     0          
O        O      0.125000000000     0.750000000000     0.565866666667     0          
T        Si     0.125000000000     0.943725000000     0.558000000000     0          
O        O      0.078575000000     0.921425000000     0.416666666667     0          
O        O      0.068550000000     0.875000000000     0.333333333333     0          
T        Si     0.056275000000     0.875000000000     0.391333333333     0          
O        O      0.078575000000     0.828575000000     0.583333333333     0          
O        O      0.125000000000     0.818550000000     0.500000000000     0          
T        Si     0.125000000000     0.806275000000     0.558000000000     0          
O        O      0.000000000000     0.875000000000     0.600800000000     0          
T        Si     0.193725000000     0.875000000000     0.608666666667     0          
O        O      0.125000000000     0.750000000000     0.434133333333     0          
T        Si     0.125000000000     0.943725000000     0.442000000000     0          
T        Si     0.056275000000     0.875000000000     0.608666666667     0          
T        Si     0.125000000000     0.806275000000     0.442000000000     0          
O        O      0.078575000000     0.921425000000     0.583333333333     0          
O        O      0.078575000000     0.828575000000     0.416666666667     0          
O        O      0.171425000000     0.828575000000     0.583333333333     0          
O        O      0.171425000000     0.921425000000     0.416666666667     0          
O        O      0.171425000000     0.828575000000     0.750000000000     0          
O        O      0.181450000000     0.875000000000     0.666666666667     0          
O        O      0.000000000000     0.875000000000     0.732533333333     0          
T        Si     0.193725000000     0.875000000000     0.724666666667     0          
O        O      0.171425000000     0.921425000000     0.916666666667     0          
O        O      0.125000000000     0.931450000000     0.833333333333     0          
O        O      0.125000000000     0.750000000000     0.899200000000     0          
T        Si     0.125000000000     0.943725000000     0.891333333333     0          
O        O      0.078575000000     0.921425000000     0.750000000000     0          
O        O      0.068550000000     0.875000000000     0.666666666667     0          
T        Si     0.056275000000     0.875000000000     0.724666666667     0          
O        O      0.078575000000     0.828575000000     0.916666666667     0          
O        O      0.125000000000     0.818550000000     0.833333333333     0          
T        Si     0.125000000000     0.806275000000     0.891333333333     0          
O        O      0.000000000000     0.875000000000     0.934133333333     0          
T        Si     0.193725000000     0.875000000000     0.942000000000     0          
O        O      0.125000000000     0.750000000000     0.767466666667     0          
T        Si     0.125000000000     0.943725000000     0.775333333333     0          
T        Si     0.056275000000     0.875000000000     0.942000000000     0          
T        Si     0.125000000000     0.806275000000     0.775333333333     0          
O        O      0.078575000000     0.921425000000     0.916666666667     0          
O        O      0.078575000000     0.828575000000     0.750000000000     0          
O        O      0.171425000000     0.828575000000     0.916666666667     0          
O        O      0.171425000000     0.921425000000     0.750000000000     0          
O        O      0.421425000000     0.078575000000     0.083333333333     0          
O        O      0.431450000000     0.125000000000     0.000000000000     0          
O        O      0.250000000000     0.125000000000     0.065866666667     0          
T        Si     0.443725000000     0.125000000000     0.058000000000     0          
O        O      0.421425000000     0.171425000000     0.250000000000     0          
O        O      0.375000000000     0.181450000000     0.166666666667     0          
O        O      0.375000000000     0.000000000000     0.232533333333     0          
T        Si     0.375000000000     0.193725000000     0.224666666667     0          
O        O      0.328575000000     0.171425000000     0.083333333333     0          
O        O      0.318550000000     0.125000000000     0.000000000000     0          
T        Si     0.306275000000     0.125000000000     0.058000000000     0          
O        O      0.328575000000     0.078575000000     0.250000000000     0          
O        O      0.375000000000     0.068550000000     0.166666666667     0          
T        Si     0.375000000000     0.056275000000     0.224666666667     0          
O        O      0.250000000000     0.125000000000     0.267466666667     0          
T        Si     0.443725000000     0.125000000000     0.275333333333     0          
O        O      0.375000000000     0.000000000000     0.100800000000     0          
T        Si     0.375000000000     0.193725000000     0.108666666667     0          
T        Si     0.306275000000     0.125000000000     0.275333333333     0          
T        Si     0.375000000000     0.056275000000     0.108666666667     0          
O        O      0.328575000000     0.171425000000     0.250000000000     0          
O        O      0.328575000000     0.078575000000     0.083333333333     0          
O        O      0.421425000000     0.078575000000     0.250000000000     0          
O        O      0.421425000000     0.171425000000     0.083333333333     0          
O        O      0.421425000000     0.078575000000     0.416666666667     0          
O        O      0.431450000000     0.125000000000     0.333333333333     0          
O        O      0.250000000000     0.125000000000     0.399200000000     0          
T        Si     0.443725000000     0.125000000000     0.391333333333     0          
O        O      0.421425000000     0.171425000000     0.583333333333     0          
O        O      0.375000000000     0.181450000000     0.500000000000     0          
O        O      0.375000000000     0.000000000000     0.565866666667     0          
T        Si     0.375000000000     0.193725000000     0.558000000000     0          
O        O      0.328575000000     0.171425000000     0.416666666667     0          
O        O      0.318550000000     0.125000000000     0.333333333333     0          
T        Si     0.306275000000     0.125000000000     0.391333333333     0          
O        O      0.328575000000     0.078575000000     0.583333333333     0          
O        O      0.375000000000     0.068550000000     0.500000000000     0          
T        Si     0.375000000000     0.056275000000     0.558000000000     0          
O        O      0.250000000000     0.125000000000     0.600800000000     0          
T        Si     0.443725000000     0.125000000000     0.608666666667     0          
O        O      0.375000000000     0.000000000000     0.434133333333     0          
T        Si     0.375000000000     0.193725000000     0.442000000000     0          
T        Si     0.306275000000     0.125000000000     0.608666666667     0          
T        Si     0.375000000000     0.056275000000     0.442000000000     0          
O        O      0.328575000000     0.171425000000     0.583333333333     0          
O        O      0.328575000000     0.078575000000     0.416666666667     0          
O        O      0.421425000000     0.078575000000     0.583333333333     0          
O        O      0.421425000000     0.171425000000     0.416666666667     0          
O        O      0.421425000000     0.078575000000     0.750000000000     0          
O        O      0.431450000000     0.125000000000     0.666666666667     0          
O        O      0.250000000000     0.125000000000     0.732533333333     0          
T        Si     0.443725000000     0.125000000000     0.724666666667     0          
O        O      0.421425000000     0.171425000000     0.916666666667     0          
O        O      0.375000000000     0.181450000000     0.833333333333     0          
O        O      0.375000000000     0.000000000000     0.899200000000     0          
T        Si     0.375000000000     0.193725000000     0.891333333333     0          
O        O      0.328575000000     0.171425000000     0.750000000000     0          
O        O      0.318550000000     0.125000000000     0.666666666667     0          
T        Si     0.306275000000     0.125000000000     0.724666666667     0          
O        O      0.328575000000     0.078575000000     0.916666666667     0          
O        O      0.375000000000     0.068550000000     0.833333333333     0          
T        Si     0.375000000000     0.056275000000     0.891333333333     0          
O        O      0.250000000000     0.125000000000     0.934133333333     0          
T        Si     0.443725000000     0.125000000000     0.942000000000     0          
O        O      0.375000000000     0.000000000000     0.767466666667     0          
T        Si     0.375000000000     0.193725000000     0.775333333333     0          
T        Si     0.306275000000     0.125000000000     0.942000000000     0          
T        Si     0.375000000000     0.056275000000     0.775333333333     0          
O        O      0.328575000000     0.171425000000     0.916666666667     0          
O        O      0.328575000000     0.078575000000     0.750000000000     0          
O        O      0.421425000000     0.078575000000     0.916666666667     0          
O        O      0.421425000000     0.171425000000     0.750000000000     0          
O        O      0.421425000000     0.328575000000     0.083333333333     0          
O        O      0.431450000000     0.375000000000     0.000000000000     0          
O        O      0.250000000000     0.375000000000     0.065866666667     0          
T        Si     0.443725000000     0.375000000000     0.058000000000     0          
O        O      0.421425000000     0.421425000000     0.250000000000     0          
O        O      0.375000000000     0.431450000000     0.166666666667     0          
O        O      0.375000000000     0.250000000000     0.232533333333     0          
T        Si     0.375000000000     0.443725000000     0.224666666667     0          
O        O      0.328575000000     0.421425000000     0.083333333333     0          
O        O      0.318550000000     0.375000000000     0.000000000000     0          
T        Si     0.306275000000     0.375000000000     0.058000000000     0          
O        O      0.328575000000     0.328575000000     0.250000000000     0          
O        O      0.375000000000     0.318550000000     0.166666666667     0          
T        Si     0.375000000000     0.306275000000     0.224666666667     0          
O        O      0.250000000000     0.375000000000     0.267466666667     0          
T        Si     0.443725000000     0.375000000000     0.275333333333     0          
O        O      0.375000000000     0.250000000000     0.100800000000     0          
T        Si     0.375000000000     0.443725000000     0.108666666667     0          
T        Si     0.306275000000     0.375000000000     0.275333333333     0          
T        Si     0.375000000000     0.306275000000     0.108666666667     0          
O        O      0.328575000000     0.421425000000     0.250000000000     0          
O        O      0.328575000000     0.328575000000     0.083333333333     0          
O        O      0.421425000000     0.328575000000     0.250000000000     0          
O        O      0.421425000000     0.421425000000     0.083333333333     0          
O        O      0.421425000000     0.328575000000     0.416666666667     0          
O        O      0.431450000000     0.375000000000     0.333333333333     0          
O        O      0.250000000000     0.375000000000     0.399200000000     0          
T        Si     0.443725000000     0.375000000000     0.391333333333     0          
O        O      0.421425000000     0.421425000000     0.583333333333     0          
O        O      0.375000000000     0.431450000000     0.500000000000     0          
O        O      0.375000000000     0.250000000000     0.565866666667     0          
T        Si     0.375000000000     0.443725000000     0.558000000000     0          
O        O      0.328575000000     0.421425000000     0.416666666667     0          
O        O      0.318550000000     0.375000000000     0.333333333333     0          
T        Si     0.306275000000     0.375000000000     0.391333333333     0          
O        O      0.328575000000     0.328575000000     0.583333333333     0          
O        O      0.375000000000     0.318550000000     0.500000000000     0          
T        Si     0.375000000000     0.306275000000     0.558000000000     0          
O        O      0.250000000000     0.375000000000     0.600800000000     0          
T        Si     0.443725000000     0.375000000000     0.608666666667     0          
O        O      0.375000000000     0.250000000000     0.434133333333     0          
T        Si     0.375000000000     0.443725000000     0.442000000000     0          
T        Si     0.306275000000     0.375000000000     0.608666666667     0          
T        Si     0.375000000000     0.306275000000     0.442000000000     0          
O        O      0.328575000000     0.421425000000     0.583333333333     0          
O        O      0.328575000000     0.328575000000     0.416666666667     0          
O        O      0.421425000000     0.328575000000     0.583333333333     0          
O        O      0.421425000000     0.421425000000     0.416666666667     0          
O        O      0.421425000000     0.328575000000     0.750000000000     0          
O        O      0.431450000000     0.375000000000     0.666666666667     0          
O        O      0.250000000000     0.375000000000     0.732533333333     0          
T        Si     0.443725000000     0.375000000000     0.724666666667     0          
O        O      0.421425000000     0.421425000000     0.916666666667     0          
O        O      0.375000000000     0.431450000000     0.833333333333     0          
O        O      0.375000000000     0.250000000000     0.899200000000     0          
T        Si     0.375000000000     0.443725000000     0.891333333333     0          
O        O      0.328575000000     0.421425000000     0.750000000000     0          
O        O      0.318550000000     0.375000000000     0.666666666667     0          
T        Si     0.306275000000     0.375000000000     0.724666666667     0          
O        O      0.328575000000     0.328575000000     0.916666666667     0          
O        O      0.375000000000     0.318550000000     0.833333333333     0          
T        Si     0.375000000000     0.306275000000     0.891333333333     0          
O        O      0.250000000000     0.375000000000     0.934133333333     0          
T        Si     0.443725000000     0.375000000000     0.942000000000     0          
O        O      0.375000000000     0.250000000000     0.767466666667     0          
T        Si     0.375000000000     0.443725000000     0.775333333333     0          
T        Si     0.306275000000     0.375000000000     0.942000000000     0          
T        Si     0.375000000000     0.306275000000     0.775333333333     0          
O        O      0.328575000000     0.421425000000     0.916666666667     0          
O        O      0.328575000000     0.328575000000     0.750000000000     0          
O        O      0.421425000000     0.328575000000     0.916666666667     0          
O        O      0.421425000000     0.421425000000     0.750000000000     0          
O        O      0.421425000000     0.578575000000     0.083333333333     0          
O        O      0.431450000000     0.625000000000     0.000000000000     0          
O        O      0.250000000000     0.625000000000     0.065866666667     0          
T        Si     0.443725000000     0.625000000000     0.058000000000     0          
O        O      0.421425000000     0.671425000000     0.250000000000     0          
O        O      0.375000000000     0.681450000000     0.166666666667     0          
O        O      0.375000000000     0.500000000000     0.232533333333     0          
T        Si     0.375000000000     0.693725000000     0.224666666667     0          
O        O      0.328575000000     0.671425000000     0.083333333333     0          
O        O      0.318550000000     0.625000000000     0.000000000000     0          
T        Si     0.306275000000     0.625000000000     0.058000000000     0          
O        O      0.328575000000     0.578575000000     0.250000000000     0          
O        O      0.375000000000     0.568550000000     0.166666666667     0          
T        Si     0.375000000000     0.556275000000     0.224666666667     0          
O        O      0.250000000000     0.625000000000     0.267466666667     0          
T        Si     0.443725000000     0.625000000000     0.275333333333     0          
O        O      0.375000000000     0.500000000000     0.100800000000     0          
T        Si     0.375000000000     0.693725000000     0.108666666667     0          
T        Si     0.306275000000     0.625000000000     0.275333333333     0          
T        Si     0.375000000000     0.556275000000     0.108666666667     0          
O        O      0.328575000000     0.671425000000     0.250000000000     0          
O        O      0.328575000000     0.578575000000     0.083333333333     0          
O        O      0.421425000000     0.578575000000     0.250000000000     0          
O        O      0.421425000000     0.671425000000     0.083333333333     0          
O        O      0.421425000000     0.578575000000     0.416666666667     0          
O        O      0.431450000000     0.625000000000     0.333333333333     0          
O        O      0.250000000000     0.625000000000     0.399200000000     0          
T        Si     0.443725000000     0.625000000000     0.391333333333     0          
O        O      0.421425000000     0.671425000000     0.583333333333     0          
O        O      0.375000000000     0.681450000000     0.500000000000     0          
O        O      0.375000000000     0.500000000000     0.565866666667     0          
T        Si     0.375000000000     0.693725000000     0.558000000000     0          
O        O      0.328575000000     0.671425000000     0.416666666667     0          
O        O      0.318550000000     0.625000000000     0.333333333333     0          
T        Si     0.306275000000     0.625000000000     0.391333333333     0          
O        O      0.328575000000     0.578575000000     0.583333333333     0          
O        O      0.375000000000     0.568550000000     0.500000000000     0          
T        Si     0.375000000000     0.556275000000     0.558000000000     0          
O        O      0.250000000000     0.625000000000     0.600800000000     0          
T        Si     0.443725000000     0.625000000000     0.608666666667     0          
O        O      0.375000000000     0.500000000000     0.434133333333     0          
T        Si     0.375000000000     0.693725000000     0.442000000000     0          
T        Si     0.306275000000     0.625000000000     0.608666666667     0          
T        Si     0.375000000000     0.556275000000     0.442000000000     0          
O        O      0.328575000000     0.671425000000     0.583333333333     0          
O        O      0.328575000000     0.578575000000     0.416666666667     0          
O        O      0.421425000000     0.578575000000     0.583333333333     0          
O        O      0.421425000000     0.671425000000     0.416666666667     0          
O        O      0.421425000000     0.578575000000     0.750000000000     0          
O        O      0.431450000000     0.625000000000     0.666666666667     0          
O        O      0.250000000000     0.625000000000     0.732533333333     0          
T        Si     0.443725000000     0.625000000000     0.724666666667     0          
O        O      0.421425000000     0.671425000000     0.916666666667     0          
O        O      0.375000000000     0.681450000000     0.833333333333     0          
O        O      0.375000000000     0.500000000000     0.899200000000     0          
T        Si     0.375000000000     0.693725000000     0.891333333333     0          
O        O      0.328575000000     0.671425000000     0.750000000000     0          
O        O      0.318550000000     0.625000000000     0.666666666667     0          
T        Si     0.306275000000     0.625000000000     0.724666666667     0          
O        O      0.328575000000     0.578575000000     0.916666666667     0          
O        O      0.375000000000     0.568550000000     0.833333333333     0          
T        Si     0.375000000000     0.556275000000     0.891333333333     0          
O        O      0.250000000000     0.625000000000     0.934133333333     0          
T        Si     0.443725000000     0.625000000000     0.942000000000     0          
O        O      0.375000000000     0.500000000000     0.767466666667     0          
T        Si     0.375000000000     0.693725000000     0.775333333333     0          
T        Si     0.306275000000     0.625000000000     0.942000000000     0          
T        Si     0.375000000000     0.556275000000     0.775333333333     0          
O        O      0.328575000000     0.671425000000     0.916666666667     0          
O        O      0.328575000000     0.578575000000     0.750000000000     0          
O        O      0.421425000000     0.578575000000     0.916666666667     0          
O        O      0.421425000000     0.671425000000     0.750000000000     0          
O        O      0.421425000000     0.828575000000     0.083333333333     0          
O        O      0.431450000000     0.875000000000     0.000000000000     0          
O        O      0.250000000000     0.875000000000     0.065866666667     0          
T        Si     0.443725000000     0.875000000000     0.058000000000     0          
O        O      0.421425000000     0.921425000000     0.250000000000     0          
O        O      0.375000000000     0.931450000000     0.166666666667     0          
O        O      0.375000000000     0.750000000000     0.232533333333     0          
T        Si     0.375000000000     0.943725000000     0.224666666667     0          
O        O      0.328575000000     0.921425000000     0.083333333333     0          
O        O      0.318550000000     0.875000000000     0.000000000000     0          
T        Si     0.306275000000     0.875000000000     0.058000000000     0          
O        O      0.328575000000     0.828575000000     0.250000000000     0          
O        O      0.375000000000     0.818550000000     0.166666666667     0          
T        Si     0.375000000000     0.806275000000     0.224666666667     0          
O        O      0.250000000000     0.875000000000     0.267466666667     0          
T        Si     0.443725000000     0.875000000000     0.275333333333     0          
O        O      0.375000000000     0.750000000000     0.100800000000     0          
T        Si     0.375000000000     0.943725000000     0.108666666667     0          
T        Si     0.306275000000     0.875000000000     0.275333333333     0          
T        Si     0.375000000000     0.806275000000     0.108666666667     0          
O        O      0.328575000000     0.921425000000     0.250000000000     0          
O        O      0.328575000000     0.828575000000     0.083333333333     0          
O        O      0.421425000000     0.828575000000     0.250000000000     0          
O        O      0.421425000000     0.921425000000     0.083333333333     0          
O        O      0.421425000000     0.828575000000     0.416666666667     0          
O        O      0.431450000000     0.875000000000     0.333333333333     0          
O        O      0.250000000000     0.875000000000     0.399200000000     0          
T        Si     0.443725000000     0.875000000000     0.391333333333     0          
O        O      0.421425000000     0.921425000000     0.583333333333     0          
O        O      0.375000000000     0.931450000000     0.500000000000     0          
O        O      0.375000000000     0.750000000000     0.565866666667     0          
T        Si     0.375000000000     0.943725000000     0.558000000000     0          
O        O      0.328575000000     0.921425000000     0.416666666667     0          
O        O      0.318550000000     0.875000000000     0.333333333333     0          
T        Si     0.306275000000     0.875000000000     0.391333333333     0          
O        O      0.328575000000     0.828575000000     0.583333333333     0          
O        O      0.375000000000     0.818550000000     0.500000000000     0          
T        Si     0.375000000000     0.806275000000     0.558000000000     0          
O        O      0.250000000000     0.875000000000     0.600800000000     0          
T        Si     0.443725000000     0.875000000000     0.608666666667     0          
O        O      0.375000000000     0.750000000000     0.434133333333     0          
T        Si     0.375000000000     0.943725000000     0.442000000000     0          
T        Si     0.306275000000     0.875000000000     0.608666666667     0          
T        Si     0.375000000000     0.806275000000     0.442000000000     0          
O        O      0.328575000000     0.921425000000     0.583333333333     0          
O        O      0.328575000000     0.828575000000     0.416666666667     0          
O        O      0.421425000000     0.828575000000     0.583333333333     0          
O        O      0.421425000000     0.921425000000     0.416666666667     0          
O        O      0.421425000000     0.828575000000     0.750000000000     0          
O        O      0.431450000000     0.875000000000     0.666666666667     0          
O        O      0.250000000000     0.875000000000     0.732533333333     0          
T        Si     0.443725000000     0.875000000000     0.724666666667     0          
O        O      0.421425000000     0.921425000000     0.916666666667     0          
O        O      0.375000000000     0.931450000000     0.833333333333     0          
O        O      0.375000000000     0.750000000000     0.899200000000     0          
T        Si     0.375000000000     0.943725000000     0.891333333333     0          
O        O      0.328575000000     0.921425000000     0.750000000000     0          
O        O      0.318550000000     0.875000000000     0.666666666667     0          
T        Si     0.306275000000     0.875000000000     0.724666666667     0          
O        O      0.328575000000     0.828575000000     0.916666666667     0          
O        O      0.375000000000     0.818550000000     0.833333333333     0          
T        Si     0.375000000000     0.806275000000     0.891333333333     0          
O        O      0.250000000000     0.875000000000     0.934133333333     0          
T        Si     0.443725000000     0.875000000000     0.942000000000     0          
O        O      0.375000000000     0.750000000000     0.767466666667     0          
T        Si     0.375000000000     0.943725000000     0.775333333333     0          
T        Si     0.306275000000     0.875000000000     0.942000000000     0          
T        Si     0.375000000000     0.806275000000     0.775333333333     0          
O        O      0.328575000000     0.921425000000     0.916666666667     0          
O        O      0.328575000000     0.828575000000     0.750000000000     0          
O        O      0.421425000000     0.828575000000     0.916666666667     0          
O        O      0.421425000000     0.921425000000     0.750000000000     0          
O        O      0.671425000000     0.078575000000     0.083333333333     0          
O        O      0.681450000000     0.125000000000     0.000000000000     0          
O        O      0.500000000000     0.125000000000     0.065866666667     0          
T        Si     0.693725000000     0.125000000000     0.058000000000     0          
O        O      0.671425000000     0.171425000000     0.250000000000     0          
O        O      0.625000000000     0.181450000000     0.166666666667     0          
O        O      0.625000000000     0.000000000000     0.232533333333     0          
T        Si     0.625000000000     0.193725000000     0.224666666667     0          
O        O      0.578575000000     0.171425000000     0.083333333333     0          
O        O      0.568550000000     0.125000000000     0.000000000000     0          
T        Si     0.556275000000     0.125000000000     0.058000000000     0          
O        O      0.578575000000     0.078575000000     0.250000000000     0          
O        O      0.625000000000     0.068550000000     0.166666666667     0          
T        Si     0.625000000000     0.056275000000     0.224666666667     0          
O        O      0.500000000000     0.125000000000     0.267466666667     0          
T        Si     0.693725000000     0.125000000000     0.275333333333     0          
O        O      0.625000000000     0.000000000000     0.100800000000     0          
T        Si     0.625000000000     0.193725000000     0.108666666667     0          
T        Si     0.556275000000     0.125000000000     0.275333333333     0          
T        Si     0.625000000000     0.056275000000     0.108666666667     0          
O        O      0.578575000000     0.171425000000     0.250000000000     0          
O        O      0.578575000000     0.078575000000     0.083333333333     0          
O        O      0.671425000000     0.078575000000     0.250000000000     0          
O        O      0.671425000000     0.171425000000     0.083333333333     0          
O        O      0.671425000000     0.078575000000     0.416666666667     0          
O        O      0.681450000000     0.125000000000     0.333333333333     0          
O        O      0.500000000000     0.125000000000     0.399200000000     0          
T        Si     0.693725000000     0.125000000000     0.391333333333     0          
O        O      0.671425000000     0.171425000000     0.583333333333     0          
O        O      0.625000000000     0.181450000000     0.500000000000     0          
O        O      0.625000000000     0.000000000000     0.565866666667     0          
T        Si     0.625000000000     0.193725000000     0.558000000000     0          
O        O      0.578575000000     0.171425000000     0.416666666667     0          
O        O      0.568550000000     0.125000000000     0.333333333333     0          
T        Si     0.556275000000     0.125000000000     0.391333333333     0          
O        O      0.578575000000     0.078575000000     0.583333333333     0          
O        O      0.625000000000     0.068550000000     0.500000000000     0          
T        Si     0.625000000000     0.056275000000     0.558000000000     0          
O        O      0.500000000000     0.125000000000     0.600800000000     0          
T        Si     0.693725000000     0.125000000000     0.608666666667     0          
O        O      0.625000000000     0.000000000000     0.434133333333     0          
T        Si     0.625000000000     0.193725000000     0.442000000000     0          
T        Si     0.556275000000     0.125000000000     0.608666666667     0          
T        Si     0.625000000000     0.056275000000     0.442000000000     0          
O        O      0.578575000000     0.171425000000     0.583333333333     0          
O        O      0.578575000000     0.078575000000     0.416666666667     0          
O        O      0.671425000000     0.078575000000     0.583333333333     0          
O        O      0.671425000000     0.171425000000     0.416666666667     0          
O        O      0.671425000000     0.078575000000     0.750000000000     0          
O        O      0.681450000000     0.125000000000     0.666666666667     0          
O        O      0.500000000000     0.125000000000     0.732533333333     0          
T        Si     0.693725000000     0.125000000000     0.724666666667     0          
O        O      0.671425000000     0.171425000000     0.916666666667     0          
O        O      0.625000000000     0.181450000000     0.833333333333     0          
O        O      0.625000000000     0.000000000000     0.899200000000     0          
T        Si     0.625000000000     0.193725000000     0.891333333333     0          
O        O      0.578575000000     0.171425000000     0.750000000000     0          
O        O      0.568550000000     0.125000000000     0.666666666667     0          
T        Si     0.556275000000     0.125000000000     0.724666666667     0          
O        O      0.578575000000     0.078575000000     0.916666666667     0          
O        O      0.625000000000     0.068550000000     0.833333333333     0          
T        Si     0.625000000000     0.056275000000     0.891333333333     0          
O        O      0.500000000000     0.125000000000     0.934133333333     0          
T        Si     0.693725000000     0.125000000000     0.942000000000     0          
O        O      0.625000000000     0.000000000000     0.767466666667     0          
T        Si     0.625000000000     0.193725000000     0.775333333333     0          
T        Si     0.556275000000     0.125000000000     0.942000000000     0          
T        Si     0.625000000000     0.056275000000     0.775333333333     0          
O        O      0.578575000000     0.171425000000     0.916666666667     0          
O        O      0.578575000000     0.078575000000     0.750000000000     0          
O        O      0.671425000000     0.078575000000     0.916666666667     0          
O        O      0.671425000000     0.171425000000     0.750000000000     0          
O        O      0.671425000000     0.328575000000     0.083333333333     0          
O        O      0.681450000000     0.375000000000     0.000000000000     0          
O        O      0.500000000000     0.375000000000     0.065866666667     0          
T        Si     0.693725000000     0.375000000000     0.058000000000     0          
O        O      0.671425000000     0.421425000000     0.250000000000     0          
O        O      0.625000000000     0.431450000000     0.166666666667     0          
O        O      0.625000000000     0.250000000000     0.232533333333     0          
T        Si     0.625000000000     0.443725000000     0.224666666667     0          
O        O      0.578575000000     0.421425000000     0.083333333333     0          
O        O      0.568550000000     0.375000000000     0.000000000000     0          
T        Si     0.556275000000     0.375000000000     0.058000000000     0          
O        O      0.578575000000     0.328575000000     0.250000000000     0          
O        O      0.625000000000     0.318550000000     0.166666666667     0          
T        Si     0.625000000000     0.306275000000     0.224666666667     0          
O        O      0.500000000000     0.375000000000     0.267466666667     0          
T        Si     0.693725000000     0.375000000000     0.275333333333     0          
O        O      0.625000000000     0.250000000000     0.100800000000     0          
T        Si     0.625000000000     0.443725000000     0.108666666667     0          
T        Si     0.556275000000     0.375000000000     0.275333333333     0          
T        Si     0.625000000000     0.306275000000     0.108666666667     0          
O        O      0.578575000000     0.421425000000     0.250000000000     0          
O        O      0.578575000000     0.328575000000     0.083333333333     0          
O        O      0.671425000000     0.328575000000     0.250000000000     0          
O        O      0.671425000000     0.421425000000     0.083333333333     0          
O        O      0.671425000000     0.328575000000     0.416666666667     0          
O        O      0.681450000000     0.375000000000     0.333333333333     0          
O        O      0.500000000000     0.375000000000     0.399200000000     0          
T        Si     0.693725000000     0.375000000000     0.391333333333     0          
O        O      0.671425000000     0.421425000000     0.583333333333     0          
O        O      0.625000000000     0.431450000000     0.500000000000     0          
O        O      0.625000000000     0.250000000000     0.565866666667     0          
T        Si     0.625000000000     0.443725000000     0.558000000000     0          
O        O      0.578575000000     0.421425000000     0.416666666667     0          
O        O      0.568550000000     0.375000000000     0.333333333333     0          
T        Si     0.556275000000     0.375000000000     0.391333333333     0          
O        O      0.578575000000     0.328575000000     0.583333333333     0          
O        O      0.625000000000     0.318550000000     0.500000000000     0          
T        Si     0.625000000000     0.306275000000     0.558000000000     0          
O        O      0.500000000000     0.375000000000     0.600800000000     0          
T        Si     0.693725000000     0.375000000000     0.608666666667     0          
O        O      0.625000000000     0.250000000000     0.434133333333     0          
T        Si     0.625000000000     0.443725000000     0.442000000000     0          
T        Si     0.556275000000     0.375000000000     0.608666666667     0          
T        Si     0.625000000000     0.306275000000     0.442000000000     0          
O        O      0.578575000000     0.421425000000     0.583333333333     0          
O        O      0.578575000000     0.328575000000     0.416666666667     0          
O        O      0.671425000000     0.328575000000     0.583333333333     0          
O        O      0.671425000000     0.421425000000     0.416666666667     0          
O        O      0.671425000000     0.328575000000     0.750000000000     0          
O        O      0.681450000000     0.375000000000     0.666666666667     0          
O        O      0.500000000000     0.375000000000     0.732533333333     0          
T        Si     0.693725000000     0.375000000000     0.724666666667     0          
O        O      0.671425000000     0.421425000000     0.916666666667     0          
O        O      0.625000000000     0.431450000000     0.833333333333     0          
O        O      0.625000000000     0.250000000000     0.899200000000     0          
T        Si     0.625000000000     0.443725000000     0.891333333333     0          
O        O      0.578575000000     0.421425000000     0.750000000000     0          
O        O      0.568550000000     0.375000000000     0.666666666667     0          
T        Si     0.556275000000     0.375000000000     0.724666666667     0          
O        O      0.578575000000     0.328575000000     0.916666666667     0          
O        O      0.625000000000     0.318550000000     0.833333333333     0          
T        Si     0.625000000000     0.306275000000     0.891333333333     0          
O        O      0.500000000000     0.375000000000     0.934133333333     0          
T        Si     0.693725000000     0.375000000000     0.942000000000     0          
O        O      0.625000000000     0.250000000000     0.767466666667     0          
T        Si     0.625000000000     0.443725000000     0.775333333333     0          
T        Si     0.556275000000     0.375000000000     0.942000000000     0          
T        Si     0.625000000000     0.306275000000     0.775333333333     0          
O        O      0.578575000000     0.421425000000     0.916666666667     0          
O        O      0.578575000000     0.328575000000     0.750000000000     0          
O        O      0.671425000000     0.328575000000     0.916666666667     0          
O        O      0.671425000000     0.421425000000     0.750000000000     0          
O        O      0.671425000000     0.578575000000     0.083333333333     0          
O        O      0.681450000000     0.625000000000     0.000000000000     0          
O        O      0.500000000000     0.625000000000     0.065866666667     0          
T        Si     0.693725000000     0.625000000000     0.058000000000     0          
O        O      0.671425000000     0.671425000000     0.250000000000     0          
O        O      0.625000000000     0.681450000000     0.166666666667     0          
O        O      0.625000000000     0.500000000000     0.232533333333     0          
T        Si     0.625000000000     0.693725000000     0.224666666667     0          
O        O      0.578575000000     0.671425000000     0.083333333333     0          
O        O      0.568550000000     0.625000000000     0.000000000000     0          
T        Si     0.556275000000     0.625000000000     0.058000000000     0          
O        O      0.578575000000     0.578575000000     0.250000000000     0          
O        O      0.625000000000     0.568550000000     0.166666666667     0          
T        Si     0.625000000000     0.556275000000     0.224666666667     0          
O        O      0.500000000000     0.625000000000     0.267466666667     0          
T        Si     0.693725000000     0.625000000000     0.275333333333     0          
O        O      0.625000000000     0.500000000000     0.100800000000     0          
T        Si     0.625000000000     0.693725000000     0.108666666667     0          
T        Si     0.556275000000     0.625000000000     0.275333333333     0          
T        Si     0.625000000000     0.556275000000     0.108666666667     0          
O        O      0.578575000000     0.671425000000     0.250000000000     0          
O        O      0.578575000000     0.578575000000     0.083333333333     0          
O        O      0.671425000000     0.578575000000     0.250000000000     0          
O        O      0.671425000000     0.671425000000     0.083333333333     0          
O        O      0.671425000000     0.578575000000     0.416666666667     0          
O        O      0.681450000000     0.625000000000     0.333333333333     0          
O        O      0.500000000000     0.625000000000     0.399200000000     0          
T        Si     0.693725000000     0.625000000000     0.391333333333     0          
O        O      0.671425000000     0.671425000000     0.583333333333     0          
O        O      0.625000000000     0.681450000000     0.500000000000     0          
O        O      0.625000000000     0.500000000000     0.565866666667     0          
T        Si     0.625000000000     0.693725000000     0.558000000000     0          
O        O      0.578575000000     0.671425000000     0.416666666667     0          
O        O      0.568550000000     0.625000000000     0.333333333333     0          
T        Si     0.556275000000     0.625000000000     0.391333333333     0          
O        O      0.578575000000     0.578575000000     0.583333333333     0          
O        O      0.625000000000     0.568550000000     0.500000000000     0          
T        Si     0.625000000000     0.556275000000     0.558000000000     0          
O        O      0.500000000000     0.625000000000     0.600800000000     0          
T        Si     0.693725000000     0.625000000000     0.608666666667     0          
O        O      0.625000000000     0.500000000000     0.434133333333     0          
T        Si     0.625000000000     0.693725000000     0.442000000000     0          
T        Si     0.556275000000     0.625000000000     0.608666666667     0          
T        Si     0.625000000000     0.556275000000     0.442000000000     0          
O        O      0.578575000000     0.671425000000     0.583333333333     0          
O        O      0.578575000000     0.578575000000     0.416666666667     0          
O        O      0.671425000000     0.578575000000     0.583333333333     0          
O        O      0.671425000000     0.671425000000     0.416666666667     0          
O        O      0.671425000000     0.578575000000     0.750000000000     0          
O        O      0.681450000000     0.625000000000     0.666666666667     0          
O        O      0.500000000000     0.625000000000     0.732533333333     0          
T        Si     0.693725000000     0.625000000000     0.724666666667     0          
O        O      0.671425000000     0.671425000000     0.916666666667     0          
O        O      0.625000000000     0.681450000000     0.833333333333     0          
O        O      0.625000000000     0.500000000000     0.899200000000     0          
T        Si     0.625000000000     0.693725000000     0.891333333333     0          
O        O      0.578575000000     0.671425000000     0.750000000000     0          
O        O      0.568550000000     0.625000000000     0.666666666667     0          
T        Si     0.556275000000     0.625000000000     0.724666666667     0          
O        O      0.578575000000     0.578575000000     0.916666666667     0          
O        O      0.625000000000     0.568550000000     0.833333333333     0          
T        Si     0.625000000000     0.556275000000     0.891333333333     0          
O        O      0.500000000000     0.625000000000     0.934133333333     0          
T        Si     0.693725000000     0.625000000000     0.942000000000     0          
O        O      0.625000000000     0.500000000000     0.767466666667     0          
T        Si     0.625000000000     0.693725000000     0.775333333333     0          
T        Si     0.556275000000     0.625000000000     0.942000000000     0          
T        Si     0.625000000000     0.556275000000     0.775333333333     0          
O        O      0.578575000000     0.671425000000     0.916666666667     0          
O        O      0.578575000000     0.578575000000     0.750000000000     0          
O        O      0.671425000000     0.578575000000     0.916666666667     0          
O        O      0.671425000000     0.671425000000     0.750000000000     0          
O        O      0.671425000000     0.828575000000     0.083333333333     0          
O        O      0.681450000000     0.875000000000     0.000000000000     0          
O        O      0.500000000000     0.875000000000     0.065866666667     0          
T        Si     0.693725000000     0.875000000000     0.058000000000     0          
O        O      0.671425000000     0.921425000000     0.250000000000     0          
O        O      0.625000000000     0.931450000000     0.166666666667     0          
O        O      0.625000000000     0.750000000000     0.232533333333     0          
T        Si     0.625000000000     0.943725000000     0.224666666667     0          
O        O      0.578575000000     0.921425000000     0.083333333333     0          
O        O      0.568550000000     0.875000000000     0.000000000000     0          
T        Si     0.556275000000     0.875000000000     0.058000000000     0          
O        O      0.578575000000     0.828575000000     0.250000000000     0          
O        O      0.625000000000     0.818550000000     0.166666666667     0          
T        Si     0.625000000000     0.806275000000     0.224666666667     0          
O        O      0.500000000000     0.875000000000     0.267466666667     0          
T        Si     0.693725000000     0.875000000000     0.275333333333     0          
O        O      0.625000000000     0.750000000000     0.100800000000     0          
T        Si     0.625000000000     0.943725000000     0.108666666667     0          
T        Si     0.556275000000     0.875000000000     0.275333333333     0          
T        Si     0.625000000000     0.806275000000     0.108666666667     0          
O        O      0.578575000000     0.921425000000     0.250000000000     0          
O        O      0.578575000000     0.828575000000     0.083333333333     0          
O        O      0.671425000000     0.828575000000     0.250000000000     0          
O        O      0.671425000000     0.921425000000     0.083333333333     0          
O        O      0.671425000000     0.828575000000     0.416666666667     0          
O        O      0.681450000000     0.875000000000     0.333333333333     0          
O        O      0.500000000000     0.875000000000     0.399200000000     0          
T        Si     0.693725000000     0.875000000000     0.391333333333     0          
O        O      0.671425000000     0.921425000000     0.583333333333     0          
O        O      0.625000000000     0.931450000000     0.500000000000     0          
O        O      0.625000000000     0.750000000000     0.565866666667     0          
T        Si     0.625000000000     0.943725000000     0.558000000000     0          
O        O      0.578575000000     0.921425000000     0.416666666667     0          
O        O      0.568550000000     0.875000000000     0.333333333333     0          
T        Si     0.556275000000     0.875000000000     0.391333333333     0          
O        O      0.578575000000     0.828575000000     0.583333333333     0          
O        O      0.625000000000     0.818550000000     0.500000000000     0          
T        Si     0.625000000000     0.806275000000     0.558000000000     0          
O        O      0.500000000000     0.875000000000     0.600800000000     0          
T        Si     0.693725000000     0.875000000000     0.608666666667     0          
O        O      0.625000000000     0.750000000000     0.434133333333     0          
T        Si     0.625000000000     0.943725000000     0.442000000000     0          
T        Si     0.556275000000     0.875000000000     0.608666666667     0          
T        Si     0.625000000000     0.806275000000     0.442000000000     0          
O        O      0.578575000000     0.921425000000     0.583333333333     0          
O        O      0.578575000000     0.828575000000     0.416666666667     0          
O        O      0.671425000000     0.828575000000     0.583333333333     0          
O        O      0.671425000000     0.921425000000     0.416666666667     0          
O        O      0.671425000000     0.828575000000     0.750000000000     0          
O        O      0.681450000000     0.875000000000     0.666666666667     0          
O        O      0.500000000000     0.875000000000     0.732533333333     0          
T        Si     0.693725000000     0.875000000000     0.724666666667     0          
O        O      0.671425000000     0.921425000000     0.916666666667     0          
O        O      0.625000000000     0.931450000000     0.833333333333     0          
O        O      0.625000000000     0.750000000000     0.899200000000     0          
T        Si     0.625000000000     0.943725000000     0.891333333333     0          
O        O      0.578575000000     0.921425000000     0.750000000000     0          
O        O      0.568550000000     0.875000000000     0.666666666667     0          
T        Si     0.556275000000     0.875000000000     0.724666666667     0          
O        O      0.578575000000     0.828575000000     0.916666666667     0          
O        O      0.625000000000     0.818550000000     0.833333333333     0          
T        Si     0.625000000000     0.806275000000     0.891333333333     0          
O        O      0.500000000000     0.875000000000     0.934133333333     0          
T        Si     0.693725000000     0.875000000000     0.942000000000     0          
O        O      0.625000000000     0.750000000000     0.767466666667     0          
T        Si     0.625000000000     0.943725000000     0.775333333333     0          
T        Si     0.556275000000     0.875000000000     0.942000000000     0          
T        Si     0.625000000000     0.806275000000     0.775333333333     0          
O        O      0.578575000000     0.921425000000     0.916666666667     0          
O        O      0.578575000000     0.828575000000     0.750000000000     0          
O        O      0.671425000000     0.828575000000     0.916666666667     0          
O        O      0.671425000000     0.921425000000     0.750000000000     0          
O        O      0.921425000000     0.078575000000     0.083333333333     0          
O        O      0.931450000000     0.125000000000     0.000000000000     0          
O        O      0.750000000000     0.125000000000     0.065866666667     0          
T        Si     0.943725000000     0.125000000000     0.058000000000     0          
O        O      0.921425000000     0.171425000000     0.250000000000     0          
O        O      0.875000000000     0.181450000000     0.166666666667     0          
O        O      0.875000000000     0.000000000000     0.232533333333     0          
T        Si     0.875000000000     0.193725000000     0.224666666667     0          
O        O      0.828575000000     0.171425000000     0.083333333333     0          
O        O      0.818550000000     0.125000000000     0.000000000000     0          
T        Si     0.806275000000     0.125000000000     0.058000000000     0          
O        O      0.828575000000     0.078575000000     0.250000000000     0          
O        O      0.875000000000     0.068550000000     0.166666666667     0          
T        Si     0.875000000000     0.056275000000     0.224666666667     0          
O        O      0.750000000000     0.125000000000     0.267466666667     0          
T        Si     0.943725000000     0.125000000000     0.275333333333     0          
O        O      0.875000000000     0.000000000000     0.100800000000     0          
T        Si     0.875000000000     0.193725000000     0.108666666667     0          
T        Si     0.806275000000     0.125000000000     0.275333333333     0          
T        Si     0.875000000000     0.056275000000     0.108666666667     0          
O        O      0.828575000000     0.171425000000     0.250000000000     0          
O        O      0.828575000000     0.078575000000     0.083333333333     0          
O        O      0.921425000000     0.078575000000     0.250000000000     0          
O        O      0.921425000000     0.171425000000     0.083333333333     0          
O        O      0.921425000000     0.078575000000     0.416666666667     0          
O        O      0.931450000000     0.125000000000     0.333333333333     0          
O        O      0.750000000000     0.125000000000     0.399200000000     0          
T        Si     0.943725000000     0.125000000000     0.391333333333     0          
O        O      0.921425000000     0.171425000000     0.583333333333     0          
O        O      0.875000000000     0.181450000000     0.500000000000     0          
O        O      0.875000000000     0.000000000000     0.565866666667     0          
T        Si     0.875000000000     0.193725000000     0.558000000000     0          
O        O      0.828575000000     0.171425000000     0.416666666667     0          
O        O      0.818550000000     0.125000000000     0.333333333333     0          
T        Si     0.806275000000     0.125000000000     0.391333333333     0          
O        O      0.828575000000     0.078575000000     0.583333333333     0          
O        O      0.875000000000     0.068550000000     0.500000000000     0          
T        Si     0.875000000000     0.056275000000     0.558000000000     0          
O        O      0.750000000000     0.125000000000     0.600800000000     0          
T        Si     0.943725000000     0.125000000000     0.608666666667     0          
O        O      0.875000000000     0.000000000000     0.434133333333     0          
T        Si     0.875000000000     0.193725000000     0.442000000000     0          
T        Si     0.806275000000     0.125000000000     0.608666666667     0          
T        Si     0.875000000000     0.056275000000     0.442000000000     0          
O        O      0.828575000000     0.171425000000     0.583333333333     0          
O        O      0.828575000000     0.078575000000     0.416666666667     0          
O        O      0.921425000000     0.078575000000     0.583333333333     0          
O        O      0.921425000000     0.171425000000     0.416666666667     0          
O        O      0.921425000000     0.078575000000     0.750000000000     0          
O        O      0.931450000000     0.125000000000     0.666666666667     0          
O        O      0.750000000000     0.125000000000     0.732533333333     0          
T        Si     0.943725000000     0.125000000000     0.724666666667     0          
O        O      0.921425000000     0.171425000000     0.916666666667     0          
O        O      0.875000000000     0.181450000000     0.833333333333     0          
O        O      0.875000000000     0.000000000000     0.899200000000     0          
T        Si     0.875000000000     0.193725000000     0.891333333333     0          
O        O      0.828575000000     0.171425000000     0.750000000000     0          
O        O      0.818550000000     0.125000000000     0.666666666667     0          
T        Si     0.806275000000     0.125000000000     0.724666666667     0          
O        O      0.828575000000     0.078575000000     0.916666666667     0          
O        O      0.875000000000     0.068550000000     0.833333333333     0          
T        Si     0.875000000000     0.056275000000     0.891333333333     0          
O        O      0.750000000000     0.125000000000     0.934133333333     0          
T        Si     0.943725000000     0.125000000000     0.942000000000     0          
O        O      0.875000000000     0.000000000000     0.767466666667     0          
T        Si     0.875000000000     0.193725000000     0.775333333333     0          
T        Si     0.806275000000     0.125000000000     0.942000000000     0          
T        Si     0.875000000000     0.056275000000     0.775333333333     0          
O        O      0.828575000000     0.171425000000     0.916666666667     0          
O        O      0.828575000000     0.078575000000     0.750000000000     0          
O        O      0.921425000000     0.078575000000     0.916666666667     0          
O        O      0.921425000000     0.171425000000     0.750000000000     0          
O        O      0.921425000000     0.328575000000     0.083333333333     0          
O        O      0.931450000000     0.375000000000     0.000000000000     0          
O        O      0.750000000000     0.375000000000     0.065866666667     0          
T        Si     0.943725000000     0.375000000000     0.058000000000     0          
O        O      0.921425000000     0.421425000000     0.250000000000     0          
O        O      0.875000000000     0.431450000000     0.166666666667     0          
O        O      0.875000000000     0.250000000000     0.232533333333     0          
T        Si     0.875000000000     0.443725000000     0.224666666667     0          
O        O      0.828575000000     0.421425000000     0.083333333333     0          
O        O      0.818550000000     0.375000000000     0.000000000000     0          
T        Si     0.806275000000     0.375000000000     0.058000000000     0          
O        O      0.828575000000     0.328575000000     0.250000000000     0          
O        O      0.875000000000     0.318550000000     0.166666666667     0          
T        Si     0.875000000000     0.306275000000     0.224666666667     0          
O        O      0.750000000000     0.375000000000     0.267466666667     0          
T        Si     0.943725000000     0.375000000000     0.275333333333     0          
O        O      0.875000000000     0.250000000000     0.100800000000     0          
T        Si     0.875000000000     0.443725000000     0.108666666667     0          
T        Si     0.806275000000     0.375000000000     0.275333333333     0          
T        Si     0.875000000000     0.306275000000     0.108666666667     0          
O        O      0.828575000000     0.421425000000     0.250000000000     0          
O        O      0.828575000000     0.328575000000     0.083333333333     0          
O        O      0.921425000000     0.328575000000     0.250000000000     0          
O        O      0.921425000000     0.421425000000     0.083333333333     0          
O        O      0.921425000000     0.328575000000     0.416666666667     0          
O        O      0.931450000000     0.375000000000     0.333333333333     0          
O        O      0.750000000000     0.375000000000     0.399200000000     0          
T        Si     0.943725000000     0.375000000000     0.391333333333     0          
O        O      0.921425000000     0.421425000000     0.583333333333     0          
O        O      0.875000000000     0.431450000000     0.500000000000     0          
O        O      0.875000000000     0.250000000000     0.565866666667     0          
T        Si     0.875000000000     0.443725000000     0.558000000000     0          
O        O      0.828575000000     0.421425000000     0.416666666667     0          
O        O      0.818550000000     0.375000000000     0.333333333333     0          
T        Si     0.806275000000     0.375000000000     0.391333333333     0          
O        O      0.828575000000     0.328575000000     0.583333333333     0          
O        O      0.875000000000     0.318550000000     0.500000000000     0          
T        Si     0.875000000000     0.306275000000     0.558000000000     0          
O        O      0.750000000000     0.375000000000     0.600800000000     0          
T        Si     0.943725000000     0.375000000000     0.608666666667     0          
O        O      0.875000000000     0.250000000000     0.434133333333     0          
T        Si     0.875000000000     0.443725000000     0.442000000000     0          
T        Si     0.806275000000     0.375000000000     0.608666666667     0          
T        Si     0.875000000000     0.306275000000     0.442000000000     0          
O        O      0.828575000000     0.421425000000     0.583333333333     0          
O        O      0.828575000000     0.328575000000     0.416666666667     0          
O        O      0.921425000000     0.328575000000     0.583333333333     0          
O        O      0.921425000000     0.421425000000     0.416666666667     0          
O        O      0.921425000000     0.328575000000     0.750000000000     0          
O        O      0.931450000000     0.375000000000     0.666666666667     0          
O        O      0.750000000000     0.375000000000     0.732533333333     0          
T        Si     0.943725000000     0.375000000000     0.724666666667     0          
O        O      0.921425000000     0.421425000000     0.916666666667     0          
O        O      0.875000000000     0.431450000000     0.833333333333     0          
O        O      0.875000000000     0.250000000000     0.899200000000     0          
T        Si     0.875000000000     0.443725000000     0.891333333333     0          
O        O      0.828575000000     0.421425000000     0.750000000000     0          
O        O      0.818550000000     0.375000000000     0.666666666667     0          
T        Si     0.806275000000     0.375000000000     0.724666666667     0          
O        O      0.828575000000     0.328575000000     0.916666666667     0          
O        O      0.875000000000     0.318550000000     0.833333333333     0          
T        Si     0.875000000000     0.306275000000     0.891333333333     0          
O        O      0.750000000000     0.375000000000     0.934133333333     0          
T        Si     0.943725000000     0.375000000000     0.942000000000     0          
O        O      0.875000000000     0.250000000000     0.767466666667     0          
T        Si     0.875000000000     0.443725000000     0.775333333333     0          
T        Si     0.806275000000     0.375000000000     0.942000000000     0          
T        Si     0.875000000000     0.306275000000     0.775333333333     0          
O        O      0.828575000000     0.421425000000     0.916666666667     0          
O        O      0.828575000000     0.328575000000     0.750000000000     0          
O        O      0.921425000000     0.328575000000     0.916666666667     0          
O        O      0.921425000000     0.421425000000     0.750000000000     0          
O        O      0.921425000000     0.578575000000     0.083333333333     0          
O        O      0.931450000000     0.625000000000     0.000000000000     0          
O        O      0.750000000000     0.625000000000     0.065866666667     0          
T        Si     0.943725000000     0.625000000000     0.058000000000     0          
O        O      0.921425000000     0.671425000000     0.250000000000     0          
O        O      0.875000000000     0.681450000000     0.166666666667     0          
O        O      0.875000000000     0.500000000000     0.232533333333     0          
T        Si     0.875000000000     0.693725000000     0.224666666667     0          
O        O      0.828575000000     0.671425000000     0.083333333333     0          
O        O      0.818550000000     0.625000000000     0.000000000000     0          
T        Si     0.806275000000     0.625000000000     0.058000000000     0          
O        O      0.828575000000     0.578575000000     0.250000000000     0          
O        O      0.875000000000     0.568550000000     0.166666666667     0          
T        Si     0.875000000000     0.556275000000     0.224666666667     0          
O        O      0.750000000000     0.625000000000     0.267466666667     0          
T        Si     0.943725000000     0.625000000000     0.275333333333     0          
O        O      0.875000000000     0.500000000000     0.100800000000     0          
T        Si     0.875000000000     0.693725000000     0.108666666667     0          
T        Si     0.806275000000     0.625000000000     0.275333333333     0          
T        Si     0.875000000000     0.556275000000     0.108666666667     0          
O        O      0.828575000000     0.671425000000     0.250000000000     0          
O        O      0.828575000000     0.578575000000     0.083333333333     0          
O        O      0.921425000000     0.578575000000     0.250000000000     0          
O        O      0.921425000000     0.671425000000     0.083333333333     0          
O        O      0.921425000000     0.578575000000     0.416666666667     0          
O        O      0.931450000000     0.625000000000     0.333333333333     0          
O        O      0.750000000000     0.625000000000     0.399200000000     0          
T        Si     0.943725000000     0.625000000000     0.391333333333     0          
O        O      0.921425000000     0.671425000000     0.583333333333     0          
O        O      0.875000000000     0.681450000000     0.500000000000     0          
O        O      0.875000000000     0.500000000000     0.565866666667     0          
T        Si     0.875000000000     0.693725000000     0.558000000000     0          
O        O      0.828575000000     0.671425000000     0.416666666667     0          
O        O      0.818550000000     0.625000000000     0.333333333333     0          
T        Si     0.806275000000     0.625000000000     0.391333333333     0          
O        O      0.828575000000     0.578575000000     0.583333333333     0          
O        O      0.875000000000     0.568550000000     0.500000000000     0          
T        Si     0.875000000000     0.556275000000     0.558000000000     0          
O        O      0.750000000000     0.625000000000     0.600800000000     0          
T        Si     0.943725000000     0.625000000000     0.608666666667     0          
O        O      0.875000000000     0.500000000000     0.434133333333     0          
T        Si     0.875000000000     0.693725000000     0.442000000000     0          
T        Si     0.806275000000     0.625000000000     0.608666666667     0          
T        Si     0.875000000000     0.556275000000     0.442000000000     0          
O        O      0.828575000000     0.671425000000     0.583333333333     0          
O        O      0.828575000000     0.578575000000     0.416666666667     0          
O        O      0.921425000000     0.578575000000     0.583333333333     0          
O        O      0.921425000000     0.671425000000     0.416666666667     0          
O        O      0.921425000000     0.578575000000     0.750000000000     0          
O        O      0.931450000000     0.625000000000     0.666666666667     0          
O        O      0.750000000000     0.625000000000     0.732533333333     0          
T        Si     0.943725000000     0.625000000000     0.724666666667     0          
O        O      0.921425000000     0.671425000000     0.916666666667     0          
O        O      0.875000000000     0.681450000000     0.833333333333     0          
O        O      0.875000000000     0.500000000000     0.899200000000     0          
T        Si     0.875000000000     0.693725000000     0.891333333333     0          
O        O      0.828575000000     0.671425000000     0.750000000000     0          
O        O      0.818550000000     0.625000000000     0.666666666667     0          
T        Si     0.806275000000     0.625000000000     0.724666666667     0          
O        O      0.828575000000     0.578575000000     0.916666666667     0          
O        O      0.875000000000     0.568550000000     0.833333333333     0          
T        Si     0.875000000000     0.556275000000     0.891333333333     0          
O        O      0.750000000000     0.625000000000     0.934133333333     0          
T        Si     0.943725000000     0.625000000000     0.942000000000     0          
O        O      0.875000000000     0.500000000000     0.767466666667     0          
T        Si     0.875000000000     0.693725000000     0.775333333333     0          
T        Si     0.806275000000     0.625000000000     0.942000000000     0          
T        Si     0.875000000000     0.556275000000     0.775333333333     0          
O        O      0.828575000000     0.671425000000     0.916666666667     0          
O        O      0.828575000000     0.578575000000     0.750000000000     0          
O        O      0.921425000000     0.578575000000     0.916666666667     0          
O        O      0.921425000000     0.671425000000     0.750000000000     0          
O        O      0.921425000000     0.828575000000     0.083333333333     0          
O        O      0.931450000000     0.875000000000     0.000000000000     0          
O        O      0.750000000000     0.875000000000     0.065866666667     0          
T        Si     0.943725000000     0.875000000000     0.058000000000     0          
O        O      0.921425000000     0.921425000000     0.250000000000     0          
O        O      0.875000000000     0.931450000000     0.166666666667     0          
O        O      0.875000000000     0.750000000000     0.232533333333     0          
T        Si     0.875000000000     0.943725000000     0.224666666667     0          
O        O      0.828575000000     0.921425000000     0.083333333333     0          
O        O      0.818550000000     0.875000000000     0.000000000000     0          
T        Si     0.806275000000     0.875000000000     0.058000000000     0          
O        O      0.828575000000     0.828575000000     0.250000000000     0          
O        O      0.875000000000     0.818550000000     0.166666666667     0          
T        Si     0.875000000000     0.806275000000     0.224666666667     0          
O        O      0.750000000000     0.875000000000     0.267466666667     0          
T        Si     0.943725000000     0.875000000000     0.275333333333     0          
O        O      0.875000000000     0.750000000000     0.100800000000     0          
T        Si     0.875000000000     0.943725000000     0.108666666667     0          
T        Si     0.806275000000     0.875000000000     0.275333333333     0          
T        Si     0.875000000000     0.806275000000     0.108666666667     0          
O        O      0.828575000000     0.921425000000     0.250000000000     0          
O        O      0.828575000000     0.828575000000     0.083333333333     0          
O        O      0.921425000000     0.828575000000     0.250000000000     0          
O        O      0.921425000000     0.921425000000     0.083333333333     0          
O        O      0.921425000000     0.828575000000     0.416666666667     0          
O        O      0.931450000000     0.875000000000     0.333333333333     0          
O        O      0.750000000000     0.875000000000     0.399200000000     0          
T        Si     0.943725000000     0.875000000000     0.391333333333     0          
O        O      0.921425000000     0.921425000000     0.583333333333     0          
O        O      0.875000000000     0.931450000000     0.500000000000     0          
O        O      0.875000000000     0.750000000000     0.565866666667     0          
T        Si     0.875000000000     0.943725000000     0.558000000000     0          
O        O      0.828575000000     0.921425000000     0.416666666667     0          
O        O      0.818550000000     0.875000000000     0.333333333333     0          
T        Si     0.806275000000     0.875000000000     0.391333333333     0          
O        O      0.828575000000     0.828575000000     0.583333333333     0          
O        O      0.875000000000     0.818550000000     0.500000000000     0          
T        Si     0.875000000000     0.806275000000     0.558000000000     0          
O        O      0.750000000000     0.875000000000     0.600800000000     0          
T        Si     0.943725000000     0.875000000000     0.608666666667     0          
O        O      0.875000000000     0.750000000000     0.434133333333     0          
T        Si     0.875000000000     0.943725000000     0.442000000000     0          
T        Si     0.806275000000     0.875000000000     0.608666666667     0          
T        Si     0.875000000000     0.806275000000     0.442000000000     0          
O        O      0.828575000000     0.921425000000     0.583333333333     0          
O        O      0.828575000000     0.828575000000     0.416666666667     0          
O        O      0.921425000000     0.828575000000     0.583333333333     0          
O        O      0.921425000000     0.921425000000     0.416666666667     0          
O        O      0.921425000000     0.828575000000     0.750000000000     0          
O        O      0.931450000000     0.875000000000     0.666666666667     0          
O        O      0.750000000000     0.875000000000     0.732533333333     0          
T        Si     0.943725000000     0.875000000000     0.724666666667     0          
O        O      0.921425000000     0.921425000000     0.916666666667     0          
O        O      0.875000000000     0.931450000000     0.833333333333     0          
O        O      0.875000000000     0.750000000000     0.899200000000     0          
T        Si     0.875000000000     0.943725000000     0.891333333333     0          
O        O      0.828575000000     0.921425000000     0.750000000000     0          
O        O      0.818550000000     0.875000000000     0.666666666667     0          
T        Si     0.806275000000     0.875000000000     0.724666666667     0          
O        O      0.828575000000     0.828575000000     0.916666666667     0          
O        O      0.875000000000     0.818550000000     0.833333333333     0          
T        Si     0.875000000000     0.806275000000     0.891333333333     0          
O        O      0.750000000000     0.875000000000     0.934133333333     0          
T        Si     0.943725000000     0.875000000000     0.942000000000     0          
O        O      0.875000000000     0.750000000000     0.767466666667     0          
T        Si     0.875000000000     0.943725000000     0.775333333333     0          
T        Si     0.806275000000     0.875000000000     0.942000000000     0          
T        Si     0.875000000000     0.806275000000     0.775333333333     0          
O        O      0.828575000000     0.921425000000     0.916666666667     0          
O        O      0.828575000000     0.828575000000     0.750000000000     0          
O        O      0.921425000000     0.828575000000     0.916666666667     0          
O        O      0.921425000000     0.921425000000     0.750000000000     0          


