data_zeolite

_audit_creation_method RASPA-1.0
_audit_creation_date 2021-6-7
_audit_author_name ''

_cell_length_a    18.284
_cell_length_b    18.284
_cell_length_c    8.589
_cell_angle_alpha 90
_cell_angle_beta  90
_cell_angle_gamma 120
_cell_volume      29839.9

_symmetry_cell_setting          hexagonal
_symmetry_space_group_name_Hall 'P 1'
_symmetry_space_group_name_H-M  'P 1'
_symmetry_Int_Tables_number     1

_symmetry_equiv_pos_as_xyz 'x,y,z'

loop_
_atom_site_label
_atom_site_type_symbol
_atom_site_fract_x
_atom_site_fract_y
_atom_site_fract_z
_atom_site_charge
T        Si     0.083850000000     0.333350000000     0.312400000000     0          
T        Si     0.291400000000     0.000000000000     0.020966666667     0          
T        Si     0.250500000000     0.083850000000     0.145733333333     0          
T        Si     0.291400000000     0.291400000000     0.187633333333     0          
T        Si     0.166650000000     0.250500000000     0.312400000000     0          
T        Si     0.000000000000     0.291400000000     0.020966666667     0          
T        Si     0.416150000000     0.166650000000     0.145733333333     0          
T        Si     0.208600000000     0.000000000000     0.187633333333     0          
T        Si     0.249500000000     0.416150000000     0.312400000000     0          
T        Si     0.208600000000     0.208600000000     0.020966666667     0          
T        Si     0.333350000000     0.249500000000     0.145733333333     0          
T        Si     0.000000000000     0.208600000000     0.187633333333     0          
T        Si     0.166650000000     0.416150000000     0.020933333333     0          
T        Si     0.000000000000     0.208600000000     0.312366666667     0          
T        Si     0.250500000000     0.166650000000     0.187600000000     0          
T        Si     0.291400000000     0.000000000000     0.145700000000     0          
T        Si     0.083850000000     0.250500000000     0.020933333333     0          
T        Si     0.291400000000     0.291400000000     0.312366666667     0          
T        Si     0.333350000000     0.083850000000     0.187600000000     0          
T        Si     0.000000000000     0.291400000000     0.145700000000     0          
T        Si     0.249500000000     0.333350000000     0.020933333333     0          
T        Si     0.208600000000     0.000000000000     0.312366666667     0          
T        Si     0.416150000000     0.249500000000     0.187600000000     0          
T        Si     0.208600000000     0.208600000000     0.145700000000     0          
T        Si     0.416150000000     0.166650000000     0.020933333333     0          
T        Si     0.249500000000     0.416150000000     0.187600000000     0          
T        Si     0.333350000000     0.249500000000     0.020933333333     0          
T        Si     0.083850000000     0.333350000000     0.187600000000     0          
T        Si     0.250500000000     0.083850000000     0.020933333333     0          
T        Si     0.166650000000     0.250500000000     0.187600000000     0          
T        Si     0.333350000000     0.083850000000     0.312400000000     0          
T        Si     0.249500000000     0.333350000000     0.145733333333     0          
T        Si     0.416150000000     0.249500000000     0.312400000000     0          
T        Si     0.166650000000     0.416150000000     0.145733333333     0          
T        Si     0.250500000000     0.166650000000     0.312400000000     0          
T        Si     0.083850000000     0.250500000000     0.145733333333     0          
T        Si     0.083850000000     0.333350000000     0.645733333333     0          
T        Si     0.291400000000     0.000000000000     0.354300000000     0          
T        Si     0.250500000000     0.083850000000     0.479066666667     0          
T        Si     0.291400000000     0.291400000000     0.520966666667     0          
T        Si     0.166650000000     0.250500000000     0.645733333333     0          
T        Si     0.000000000000     0.291400000000     0.354300000000     0          
T        Si     0.416150000000     0.166650000000     0.479066666667     0          
T        Si     0.208600000000     0.000000000000     0.520966666667     0          
T        Si     0.249500000000     0.416150000000     0.645733333333     0          
T        Si     0.208600000000     0.208600000000     0.354300000000     0          
T        Si     0.333350000000     0.249500000000     0.479066666667     0          
T        Si     0.000000000000     0.208600000000     0.520966666667     0          
T        Si     0.166650000000     0.416150000000     0.354266666667     0          
T        Si     0.000000000000     0.208600000000     0.645700000000     0          
T        Si     0.250500000000     0.166650000000     0.520933333333     0          
T        Si     0.291400000000     0.000000000000     0.479033333333     0          
T        Si     0.083850000000     0.250500000000     0.354266666667     0          
T        Si     0.291400000000     0.291400000000     0.645700000000     0          
T        Si     0.333350000000     0.083850000000     0.520933333333     0          
T        Si     0.000000000000     0.291400000000     0.479033333333     0          
T        Si     0.249500000000     0.333350000000     0.354266666667     0          
T        Si     0.208600000000     0.000000000000     0.645700000000     0          
T        Si     0.416150000000     0.249500000000     0.520933333333     0          
T        Si     0.208600000000     0.208600000000     0.479033333333     0          
T        Si     0.416150000000     0.166650000000     0.354266666667     0          
T        Si     0.249500000000     0.416150000000     0.520933333333     0          
T        Si     0.333350000000     0.249500000000     0.354266666667     0          
T        Si     0.083850000000     0.333350000000     0.520933333333     0          
T        Si     0.250500000000     0.083850000000     0.354266666667     0          
T        Si     0.166650000000     0.250500000000     0.520933333333     0          
T        Si     0.333350000000     0.083850000000     0.645733333333     0          
T        Si     0.249500000000     0.333350000000     0.479066666667     0          
T        Si     0.416150000000     0.249500000000     0.645733333333     0          
T        Si     0.166650000000     0.416150000000     0.479066666667     0          
T        Si     0.250500000000     0.166650000000     0.645733333333     0          
T        Si     0.083850000000     0.250500000000     0.479066666667     0          
T        Si     0.083850000000     0.333350000000     0.979066666667     0          
T        Si     0.291400000000     0.000000000000     0.687633333333     0          
T        Si     0.250500000000     0.083850000000     0.812400000000     0          
T        Si     0.291400000000     0.291400000000     0.854300000000     0          
T        Si     0.166650000000     0.250500000000     0.979066666667     0          
T        Si     0.000000000000     0.291400000000     0.687633333333     0          
T        Si     0.416150000000     0.166650000000     0.812400000000     0          
T        Si     0.208600000000     0.000000000000     0.854300000000     0          
T        Si     0.249500000000     0.416150000000     0.979066666667     0          
T        Si     0.208600000000     0.208600000000     0.687633333333     0          
T        Si     0.333350000000     0.249500000000     0.812400000000     0          
T        Si     0.000000000000     0.208600000000     0.854300000000     0          
T        Si     0.166650000000     0.416150000000     0.687600000000     0          
T        Si     0.000000000000     0.208600000000     0.979033333333     0          
T        Si     0.250500000000     0.166650000000     0.854266666667     0          
T        Si     0.291400000000     0.000000000000     0.812366666667     0          
T        Si     0.083850000000     0.250500000000     0.687600000000     0          
T        Si     0.291400000000     0.291400000000     0.979033333333     0          
T        Si     0.333350000000     0.083850000000     0.854266666667     0          
T        Si     0.000000000000     0.291400000000     0.812366666667     0          
T        Si     0.249500000000     0.333350000000     0.687600000000     0          
T        Si     0.208600000000     0.000000000000     0.979033333333     0          
T        Si     0.416150000000     0.249500000000     0.854266666667     0          
T        Si     0.208600000000     0.208600000000     0.812366666667     0          
T        Si     0.416150000000     0.166650000000     0.687600000000     0          
T        Si     0.249500000000     0.416150000000     0.854266666667     0          
T        Si     0.333350000000     0.249500000000     0.687600000000     0          
T        Si     0.083850000000     0.333350000000     0.854266666667     0          
T        Si     0.250500000000     0.083850000000     0.687600000000     0          
T        Si     0.166650000000     0.250500000000     0.854266666667     0          
T        Si     0.333350000000     0.083850000000     0.979066666667     0          
T        Si     0.249500000000     0.333350000000     0.812400000000     0          
T        Si     0.416150000000     0.249500000000     0.979066666667     0          
T        Si     0.166650000000     0.416150000000     0.812400000000     0          
T        Si     0.250500000000     0.166650000000     0.979066666667     0          
T        Si     0.083850000000     0.250500000000     0.812400000000     0          
T        Si     0.083850000000     0.833350000000     0.312400000000     0          
T        Si     0.291400000000     0.500000000000     0.020966666667     0          
T        Si     0.250500000000     0.583850000000     0.145733333333     0          
T        Si     0.291400000000     0.791400000000     0.187633333333     0          
T        Si     0.166650000000     0.750500000000     0.312400000000     0          
T        Si     0.000000000000     0.791400000000     0.020966666667     0          
T        Si     0.416150000000     0.666650000000     0.145733333333     0          
T        Si     0.208600000000     0.500000000000     0.187633333333     0          
T        Si     0.249500000000     0.916150000000     0.312400000000     0          
T        Si     0.208600000000     0.708600000000     0.020966666667     0          
T        Si     0.333350000000     0.749500000000     0.145733333333     0          
T        Si     0.000000000000     0.708600000000     0.187633333333     0          
T        Si     0.166650000000     0.916150000000     0.020933333333     0          
T        Si     0.000000000000     0.708600000000     0.312366666667     0          
T        Si     0.250500000000     0.666650000000     0.187600000000     0          
T        Si     0.291400000000     0.500000000000     0.145700000000     0          
T        Si     0.083850000000     0.750500000000     0.020933333333     0          
T        Si     0.291400000000     0.791400000000     0.312366666667     0          
T        Si     0.333350000000     0.583850000000     0.187600000000     0          
T        Si     0.000000000000     0.791400000000     0.145700000000     0          
T        Si     0.249500000000     0.833350000000     0.020933333333     0          
T        Si     0.208600000000     0.500000000000     0.312366666667     0          
T        Si     0.416150000000     0.749500000000     0.187600000000     0          
T        Si     0.208600000000     0.708600000000     0.145700000000     0          
T        Si     0.416150000000     0.666650000000     0.020933333333     0          
T        Si     0.249500000000     0.916150000000     0.187600000000     0          
T        Si     0.333350000000     0.749500000000     0.020933333333     0          
T        Si     0.083850000000     0.833350000000     0.187600000000     0          
T        Si     0.250500000000     0.583850000000     0.020933333333     0          
T        Si     0.166650000000     0.750500000000     0.187600000000     0          
T        Si     0.333350000000     0.583850000000     0.312400000000     0          
T        Si     0.249500000000     0.833350000000     0.145733333333     0          
T        Si     0.416150000000     0.749500000000     0.312400000000     0          
T        Si     0.166650000000     0.916150000000     0.145733333333     0          
T        Si     0.250500000000     0.666650000000     0.312400000000     0          
T        Si     0.083850000000     0.750500000000     0.145733333333     0          
T        Si     0.083850000000     0.833350000000     0.645733333333     0          
T        Si     0.291400000000     0.500000000000     0.354300000000     0          
T        Si     0.250500000000     0.583850000000     0.479066666667     0          
T        Si     0.291400000000     0.791400000000     0.520966666667     0          
T        Si     0.166650000000     0.750500000000     0.645733333333     0          
T        Si     0.000000000000     0.791400000000     0.354300000000     0          
T        Si     0.416150000000     0.666650000000     0.479066666667     0          
T        Si     0.208600000000     0.500000000000     0.520966666667     0          
T        Si     0.249500000000     0.916150000000     0.645733333333     0          
T        Si     0.208600000000     0.708600000000     0.354300000000     0          
T        Si     0.333350000000     0.749500000000     0.479066666667     0          
T        Si     0.000000000000     0.708600000000     0.520966666667     0          
T        Si     0.166650000000     0.916150000000     0.354266666667     0          
T        Si     0.000000000000     0.708600000000     0.645700000000     0          
T        Si     0.250500000000     0.666650000000     0.520933333333     0          
T        Si     0.291400000000     0.500000000000     0.479033333333     0          
T        Si     0.083850000000     0.750500000000     0.354266666667     0          
T        Si     0.291400000000     0.791400000000     0.645700000000     0          
T        Si     0.333350000000     0.583850000000     0.520933333333     0          
T        Si     0.000000000000     0.791400000000     0.479033333333     0          
T        Si     0.249500000000     0.833350000000     0.354266666667     0          
T        Si     0.208600000000     0.500000000000     0.645700000000     0          
T        Si     0.416150000000     0.749500000000     0.520933333333     0          
T        Si     0.208600000000     0.708600000000     0.479033333333     0          
T        Si     0.416150000000     0.666650000000     0.354266666667     0          
T        Si     0.249500000000     0.916150000000     0.520933333333     0          
T        Si     0.333350000000     0.749500000000     0.354266666667     0          
T        Si     0.083850000000     0.833350000000     0.520933333333     0          
T        Si     0.250500000000     0.583850000000     0.354266666667     0          
T        Si     0.166650000000     0.750500000000     0.520933333333     0          
T        Si     0.333350000000     0.583850000000     0.645733333333     0          
T        Si     0.249500000000     0.833350000000     0.479066666667     0          
T        Si     0.416150000000     0.749500000000     0.645733333333     0          
T        Si     0.166650000000     0.916150000000     0.479066666667     0          
T        Si     0.250500000000     0.666650000000     0.645733333333     0          
T        Si     0.083850000000     0.750500000000     0.479066666667     0          
T        Si     0.083850000000     0.833350000000     0.979066666667     0          
T        Si     0.291400000000     0.500000000000     0.687633333333     0          
T        Si     0.250500000000     0.583850000000     0.812400000000     0          
T        Si     0.291400000000     0.791400000000     0.854300000000     0          
T        Si     0.166650000000     0.750500000000     0.979066666667     0          
T        Si     0.000000000000     0.791400000000     0.687633333333     0          
T        Si     0.416150000000     0.666650000000     0.812400000000     0          
T        Si     0.208600000000     0.500000000000     0.854300000000     0          
T        Si     0.249500000000     0.916150000000     0.979066666667     0          
T        Si     0.208600000000     0.708600000000     0.687633333333     0          
T        Si     0.333350000000     0.749500000000     0.812400000000     0          
T        Si     0.000000000000     0.708600000000     0.854300000000     0          
T        Si     0.166650000000     0.916150000000     0.687600000000     0          
T        Si     0.000000000000     0.708600000000     0.979033333333     0          
T        Si     0.250500000000     0.666650000000     0.854266666667     0          
T        Si     0.291400000000     0.500000000000     0.812366666667     0          
T        Si     0.083850000000     0.750500000000     0.687600000000     0          
T        Si     0.291400000000     0.791400000000     0.979033333333     0          
T        Si     0.333350000000     0.583850000000     0.854266666667     0          
T        Si     0.000000000000     0.791400000000     0.812366666667     0          
T        Si     0.249500000000     0.833350000000     0.687600000000     0          
T        Si     0.208600000000     0.500000000000     0.979033333333     0          
T        Si     0.416150000000     0.749500000000     0.854266666667     0          
T        Si     0.208600000000     0.708600000000     0.812366666667     0          
T        Si     0.416150000000     0.666650000000     0.687600000000     0          
T        Si     0.249500000000     0.916150000000     0.854266666667     0          
T        Si     0.333350000000     0.749500000000     0.687600000000     0          
T        Si     0.083850000000     0.833350000000     0.854266666667     0          
T        Si     0.250500000000     0.583850000000     0.687600000000     0          
T        Si     0.166650000000     0.750500000000     0.854266666667     0          
T        Si     0.333350000000     0.583850000000     0.979066666667     0          
T        Si     0.249500000000     0.833350000000     0.812400000000     0          
T        Si     0.416150000000     0.749500000000     0.979066666667     0          
T        Si     0.166650000000     0.916150000000     0.812400000000     0          
T        Si     0.250500000000     0.666650000000     0.979066666667     0          
T        Si     0.083850000000     0.750500000000     0.812400000000     0          
T        Si     0.583850000000     0.333350000000     0.312400000000     0          
T        Si     0.791400000000     0.000000000000     0.020966666667     0          
T        Si     0.750500000000     0.083850000000     0.145733333333     0          
T        Si     0.791400000000     0.291400000000     0.187633333333     0          
T        Si     0.666650000000     0.250500000000     0.312400000000     0          
T        Si     0.500000000000     0.291400000000     0.020966666667     0          
T        Si     0.916150000000     0.166650000000     0.145733333333     0          
T        Si     0.708600000000     0.000000000000     0.187633333333     0          
T        Si     0.749500000000     0.416150000000     0.312400000000     0          
T        Si     0.708600000000     0.208600000000     0.020966666667     0          
T        Si     0.833350000000     0.249500000000     0.145733333333     0          
T        Si     0.500000000000     0.208600000000     0.187633333333     0          
T        Si     0.666650000000     0.416150000000     0.020933333333     0          
T        Si     0.500000000000     0.208600000000     0.312366666667     0          
T        Si     0.750500000000     0.166650000000     0.187600000000     0          
T        Si     0.791400000000     0.000000000000     0.145700000000     0          
T        Si     0.583850000000     0.250500000000     0.020933333333     0          
T        Si     0.791400000000     0.291400000000     0.312366666667     0          
T        Si     0.833350000000     0.083850000000     0.187600000000     0          
T        Si     0.500000000000     0.291400000000     0.145700000000     0          
T        Si     0.749500000000     0.333350000000     0.020933333333     0          
T        Si     0.708600000000     0.000000000000     0.312366666667     0          
T        Si     0.916150000000     0.249500000000     0.187600000000     0          
T        Si     0.708600000000     0.208600000000     0.145700000000     0          
T        Si     0.916150000000     0.166650000000     0.020933333333     0          
T        Si     0.749500000000     0.416150000000     0.187600000000     0          
T        Si     0.833350000000     0.249500000000     0.020933333333     0          
T        Si     0.583850000000     0.333350000000     0.187600000000     0          
T        Si     0.750500000000     0.083850000000     0.020933333333     0          
T        Si     0.666650000000     0.250500000000     0.187600000000     0          
T        Si     0.833350000000     0.083850000000     0.312400000000     0          
T        Si     0.749500000000     0.333350000000     0.145733333333     0          
T        Si     0.916150000000     0.249500000000     0.312400000000     0          
T        Si     0.666650000000     0.416150000000     0.145733333333     0          
T        Si     0.750500000000     0.166650000000     0.312400000000     0          
T        Si     0.583850000000     0.250500000000     0.145733333333     0          
T        Si     0.583850000000     0.333350000000     0.645733333333     0          
T        Si     0.791400000000     0.000000000000     0.354300000000     0          
T        Si     0.750500000000     0.083850000000     0.479066666667     0          
T        Si     0.791400000000     0.291400000000     0.520966666667     0          
T        Si     0.666650000000     0.250500000000     0.645733333333     0          
T        Si     0.500000000000     0.291400000000     0.354300000000     0          
T        Si     0.916150000000     0.166650000000     0.479066666667     0          
T        Si     0.708600000000     0.000000000000     0.520966666667     0          
T        Si     0.749500000000     0.416150000000     0.645733333333     0          
T        Si     0.708600000000     0.208600000000     0.354300000000     0          
T        Si     0.833350000000     0.249500000000     0.479066666667     0          
T        Si     0.500000000000     0.208600000000     0.520966666667     0          
T        Si     0.666650000000     0.416150000000     0.354266666667     0          
T        Si     0.500000000000     0.208600000000     0.645700000000     0          
T        Si     0.750500000000     0.166650000000     0.520933333333     0          
T        Si     0.791400000000     0.000000000000     0.479033333333     0          
T        Si     0.583850000000     0.250500000000     0.354266666667     0          
T        Si     0.791400000000     0.291400000000     0.645700000000     0          
T        Si     0.833350000000     0.083850000000     0.520933333333     0          
T        Si     0.500000000000     0.291400000000     0.479033333333     0          
T        Si     0.749500000000     0.333350000000     0.354266666667     0          
T        Si     0.708600000000     0.000000000000     0.645700000000     0          
T        Si     0.916150000000     0.249500000000     0.520933333333     0          
T        Si     0.708600000000     0.208600000000     0.479033333333     0          
T        Si     0.916150000000     0.166650000000     0.354266666667     0          
T        Si     0.749500000000     0.416150000000     0.520933333333     0          
T        Si     0.833350000000     0.249500000000     0.354266666667     0          
T        Si     0.583850000000     0.333350000000     0.520933333333     0          
T        Si     0.750500000000     0.083850000000     0.354266666667     0          
T        Si     0.666650000000     0.250500000000     0.520933333333     0          
T        Si     0.833350000000     0.083850000000     0.645733333333     0          
T        Si     0.749500000000     0.333350000000     0.479066666667     0          
T        Si     0.916150000000     0.249500000000     0.645733333333     0          
T        Si     0.666650000000     0.416150000000     0.479066666667     0          
T        Si     0.750500000000     0.166650000000     0.645733333333     0          
T        Si     0.583850000000     0.250500000000     0.479066666667     0          
T        Si     0.583850000000     0.333350000000     0.979066666667     0          
T        Si     0.791400000000     0.000000000000     0.687633333333     0          
T        Si     0.750500000000     0.083850000000     0.812400000000     0          
T        Si     0.791400000000     0.291400000000     0.854300000000     0          
T        Si     0.666650000000     0.250500000000     0.979066666667     0          
T        Si     0.500000000000     0.291400000000     0.687633333333     0          
T        Si     0.916150000000     0.166650000000     0.812400000000     0          
T        Si     0.708600000000     0.000000000000     0.854300000000     0          
T        Si     0.749500000000     0.416150000000     0.979066666667     0          
T        Si     0.708600000000     0.208600000000     0.687633333333     0          
T        Si     0.833350000000     0.249500000000     0.812400000000     0          
T        Si     0.500000000000     0.208600000000     0.854300000000     0          
T        Si     0.666650000000     0.416150000000     0.687600000000     0          
T        Si     0.500000000000     0.208600000000     0.979033333333     0          
T        Si     0.750500000000     0.166650000000     0.854266666667     0          
T        Si     0.791400000000     0.000000000000     0.812366666667     0          
T        Si     0.583850000000     0.250500000000     0.687600000000     0          
T        Si     0.791400000000     0.291400000000     0.979033333333     0          
T        Si     0.833350000000     0.083850000000     0.854266666667     0          
T        Si     0.500000000000     0.291400000000     0.812366666667     0          
T        Si     0.749500000000     0.333350000000     0.687600000000     0          
T        Si     0.708600000000     0.000000000000     0.979033333333     0          
T        Si     0.916150000000     0.249500000000     0.854266666667     0          
T        Si     0.708600000000     0.208600000000     0.812366666667     0          
T        Si     0.916150000000     0.166650000000     0.687600000000     0          
T        Si     0.749500000000     0.416150000000     0.854266666667     0          
T        Si     0.833350000000     0.249500000000     0.687600000000     0          
T        Si     0.583850000000     0.333350000000     0.854266666667     0          
T        Si     0.750500000000     0.083850000000     0.687600000000     0          
T        Si     0.666650000000     0.250500000000     0.854266666667     0          
T        Si     0.833350000000     0.083850000000     0.979066666667     0          
T        Si     0.749500000000     0.333350000000     0.812400000000     0          
T        Si     0.916150000000     0.249500000000     0.979066666667     0          
T        Si     0.666650000000     0.416150000000     0.812400000000     0          
T        Si     0.750500000000     0.166650000000     0.979066666667     0          
T        Si     0.583850000000     0.250500000000     0.812400000000     0          
T        Si     0.583850000000     0.833350000000     0.312400000000     0          
T        Si     0.791400000000     0.500000000000     0.020966666667     0          
T        Si     0.750500000000     0.583850000000     0.145733333333     0          
T        Si     0.791400000000     0.791400000000     0.187633333333     0          
T        Si     0.666650000000     0.750500000000     0.312400000000     0          
T        Si     0.500000000000     0.791400000000     0.020966666667     0          
T        Si     0.916150000000     0.666650000000     0.145733333333     0          
T        Si     0.708600000000     0.500000000000     0.187633333333     0          
T        Si     0.749500000000     0.916150000000     0.312400000000     0          
T        Si     0.708600000000     0.708600000000     0.020966666667     0          
T        Si     0.833350000000     0.749500000000     0.145733333333     0          
T        Si     0.500000000000     0.708600000000     0.187633333333     0          
T        Si     0.666650000000     0.916150000000     0.020933333333     0          
T        Si     0.500000000000     0.708600000000     0.312366666667     0          
T        Si     0.750500000000     0.666650000000     0.187600000000     0          
T        Si     0.791400000000     0.500000000000     0.145700000000     0          
T        Si     0.583850000000     0.750500000000     0.020933333333     0          
T        Si     0.791400000000     0.791400000000     0.312366666667     0          
T        Si     0.833350000000     0.583850000000     0.187600000000     0          
T        Si     0.500000000000     0.791400000000     0.145700000000     0          
T        Si     0.749500000000     0.833350000000     0.020933333333     0          
T        Si     0.708600000000     0.500000000000     0.312366666667     0          
T        Si     0.916150000000     0.749500000000     0.187600000000     0          
T        Si     0.708600000000     0.708600000000     0.145700000000     0          
T        Si     0.916150000000     0.666650000000     0.020933333333     0          
T        Si     0.749500000000     0.916150000000     0.187600000000     0          
T        Si     0.833350000000     0.749500000000     0.020933333333     0          
T        Si     0.583850000000     0.833350000000     0.187600000000     0          
T        Si     0.750500000000     0.583850000000     0.020933333333     0          
T        Si     0.666650000000     0.750500000000     0.187600000000     0          
T        Si     0.833350000000     0.583850000000     0.312400000000     0          
T        Si     0.749500000000     0.833350000000     0.145733333333     0          
T        Si     0.916150000000     0.749500000000     0.312400000000     0          
T        Si     0.666650000000     0.916150000000     0.145733333333     0          
T        Si     0.750500000000     0.666650000000     0.312400000000     0          
T        Si     0.583850000000     0.750500000000     0.145733333333     0          
T        Si     0.583850000000     0.833350000000     0.645733333333     0          
T        Si     0.791400000000     0.500000000000     0.354300000000     0          
T        Si     0.750500000000     0.583850000000     0.479066666667     0          
T        Si     0.791400000000     0.791400000000     0.520966666667     0          
T        Si     0.666650000000     0.750500000000     0.645733333333     0          
T        Si     0.500000000000     0.791400000000     0.354300000000     0          
T        Si     0.916150000000     0.666650000000     0.479066666667     0          
T        Si     0.708600000000     0.500000000000     0.520966666667     0          
T        Si     0.749500000000     0.916150000000     0.645733333333     0          
T        Si     0.708600000000     0.708600000000     0.354300000000     0          
T        Si     0.833350000000     0.749500000000     0.479066666667     0          
T        Si     0.500000000000     0.708600000000     0.520966666667     0          
T        Si     0.666650000000     0.916150000000     0.354266666667     0          
T        Si     0.500000000000     0.708600000000     0.645700000000     0          
T        Si     0.750500000000     0.666650000000     0.520933333333     0          
T        Si     0.791400000000     0.500000000000     0.479033333333     0          
T        Si     0.583850000000     0.750500000000     0.354266666667     0          
T        Si     0.791400000000     0.791400000000     0.645700000000     0          
T        Si     0.833350000000     0.583850000000     0.520933333333     0          
T        Si     0.500000000000     0.791400000000     0.479033333333     0          
T        Si     0.749500000000     0.833350000000     0.354266666667     0          
T        Si     0.708600000000     0.500000000000     0.645700000000     0          
T        Si     0.916150000000     0.749500000000     0.520933333333     0          
T        Si     0.708600000000     0.708600000000     0.479033333333     0          
T        Si     0.916150000000     0.666650000000     0.354266666667     0          
T        Si     0.749500000000     0.916150000000     0.520933333333     0          
T        Si     0.833350000000     0.749500000000     0.354266666667     0          
T        Si     0.583850000000     0.833350000000     0.520933333333     0          
T        Si     0.750500000000     0.583850000000     0.354266666667     0          
T        Si     0.666650000000     0.750500000000     0.520933333333     0          
T        Si     0.833350000000     0.583850000000     0.645733333333     0          
T        Si     0.749500000000     0.833350000000     0.479066666667     0          
T        Si     0.916150000000     0.749500000000     0.645733333333     0          
T        Si     0.666650000000     0.916150000000     0.479066666667     0          
T        Si     0.750500000000     0.666650000000     0.645733333333     0          
T        Si     0.583850000000     0.750500000000     0.479066666667     0          
T        Si     0.583850000000     0.833350000000     0.979066666667     0          
T        Si     0.791400000000     0.500000000000     0.687633333333     0          
T        Si     0.750500000000     0.583850000000     0.812400000000     0          
T        Si     0.791400000000     0.791400000000     0.854300000000     0          
T        Si     0.666650000000     0.750500000000     0.979066666667     0          
T        Si     0.500000000000     0.791400000000     0.687633333333     0          
T        Si     0.916150000000     0.666650000000     0.812400000000     0          
T        Si     0.708600000000     0.500000000000     0.854300000000     0          
T        Si     0.749500000000     0.916150000000     0.979066666667     0          
T        Si     0.708600000000     0.708600000000     0.687633333333     0          
T        Si     0.833350000000     0.749500000000     0.812400000000     0          
T        Si     0.500000000000     0.708600000000     0.854300000000     0          
T        Si     0.666650000000     0.916150000000     0.687600000000     0          
T        Si     0.500000000000     0.708600000000     0.979033333333     0          
T        Si     0.750500000000     0.666650000000     0.854266666667     0          
T        Si     0.791400000000     0.500000000000     0.812366666667     0          
T        Si     0.583850000000     0.750500000000     0.687600000000     0          
T        Si     0.791400000000     0.791400000000     0.979033333333     0          
T        Si     0.833350000000     0.583850000000     0.854266666667     0          
T        Si     0.500000000000     0.791400000000     0.812366666667     0          
T        Si     0.749500000000     0.833350000000     0.687600000000     0          
T        Si     0.708600000000     0.500000000000     0.979033333333     0          
T        Si     0.916150000000     0.749500000000     0.854266666667     0          
T        Si     0.708600000000     0.708600000000     0.812366666667     0          
T        Si     0.916150000000     0.666650000000     0.687600000000     0          
T        Si     0.749500000000     0.916150000000     0.854266666667     0          
T        Si     0.833350000000     0.749500000000     0.687600000000     0          
T        Si     0.583850000000     0.833350000000     0.854266666667     0          
T        Si     0.750500000000     0.583850000000     0.687600000000     0          
T        Si     0.666650000000     0.750500000000     0.854266666667     0          
T        Si     0.833350000000     0.583850000000     0.979066666667     0          
T        Si     0.749500000000     0.833350000000     0.812400000000     0          
T        Si     0.916150000000     0.749500000000     0.979066666667     0          
T        Si     0.666650000000     0.916150000000     0.812400000000     0          
T        Si     0.750500000000     0.666650000000     0.979066666667     0          
T        Si     0.583850000000     0.750500000000     0.812400000000     0          
O        O      0.084650000000     0.292350000000     0.000000000000     0          
O        O      0.124650000000     0.375350000000     0.000000000000     0          
O        O      0.041700000000     0.332400000000     0.332800000000     0          
O        O      0.084050000000     0.333350000000     0.250000000000     0          
O        O      0.250000000000     0.000000000000     0.000000000000     0          
O        O      0.291650000000     0.000000000000     0.083333333333     0          
O        O      0.292300000000     0.084650000000     0.166666666667     0          
O        O      0.249300000000     0.124650000000     0.166666666667     0          
O        O      0.209300000000     0.041700000000     0.166133333333     0          
O        O      0.250700000000     0.084050000000     0.083333333333     0          
O        O      0.250000000000     0.250000000000     0.166666666667     0          
O        O      0.291650000000     0.291650000000     0.250000000000     0          
O        O      0.207650000000     0.292300000000     0.000000000000     0          
O        O      0.124650000000     0.249300000000     0.000000000000     0          
O        O      0.167600000000     0.209300000000     0.332800000000     0          
O        O      0.166650000000     0.250700000000     0.250000000000     0          
O        O      0.000000000000     0.250000000000     0.000000000000     0          
O        O      0.000000000000     0.291650000000     0.083333333333     0          
O        O      0.415350000000     0.207650000000     0.166666666667     0          
O        O      0.375350000000     0.124650000000     0.166666666667     0          
O        O      0.458300000000     0.167600000000     0.166133333333     0          
O        O      0.415950000000     0.166650000000     0.083333333333     0          
O        O      0.250000000000     0.000000000000     0.166666666667     0          
O        O      0.208350000000     0.000000000000     0.250000000000     0          
O        O      0.207700000000     0.415350000000     0.000000000000     0          
O        O      0.250700000000     0.375350000000     0.000000000000     0          
O        O      0.290700000000     0.458300000000     0.332800000000     0          
O        O      0.249300000000     0.415950000000     0.250000000000     0          
O        O      0.250000000000     0.250000000000     0.000000000000     0          
O        O      0.208350000000     0.208350000000     0.083333333333     0          
O        O      0.292350000000     0.207700000000     0.166666666667     0          
O        O      0.375350000000     0.250700000000     0.166666666667     0          
O        O      0.332400000000     0.290700000000     0.166133333333     0          
O        O      0.333350000000     0.249300000000     0.083333333333     0          
O        O      0.000000000000     0.250000000000     0.166666666667     0          
O        O      0.000000000000     0.208350000000     0.250000000000     0          
O        O      0.167600000000     0.458300000000     0.000533333333     0          
O        O      0.166650000000     0.415950000000     0.083333333333     0          
O        O      0.209300000000     0.167600000000     0.167200000000     0          
O        O      0.250700000000     0.166650000000     0.250000000000     0          
O        O      0.041700000000     0.209300000000     0.000533333333     0          
O        O      0.084050000000     0.250700000000     0.083333333333     0          
O        O      0.332400000000     0.041700000000     0.167200000000     0          
O        O      0.333350000000     0.084050000000     0.250000000000     0          
O        O      0.290700000000     0.332400000000     0.000533333333     0          
O        O      0.249300000000     0.333350000000     0.083333333333     0          
O        O      0.458300000000     0.290700000000     0.167200000000     0          
O        O      0.415950000000     0.249300000000     0.250000000000     0          
O        O      0.415350000000     0.207650000000     0.000000000000     0          
O        O      0.375350000000     0.124650000000     0.000000000000     0          
O        O      0.458300000000     0.167600000000     0.000533333333     0          
O        O      0.207700000000     0.415350000000     0.166666666667     0          
O        O      0.250700000000     0.375350000000     0.166666666667     0          
O        O      0.290700000000     0.458300000000     0.167200000000     0          
O        O      0.292350000000     0.207700000000     0.000000000000     0          
O        O      0.375350000000     0.250700000000     0.000000000000     0          
O        O      0.332400000000     0.290700000000     0.000533333333     0          
O        O      0.084650000000     0.292350000000     0.166666666667     0          
O        O      0.124650000000     0.375350000000     0.166666666667     0          
O        O      0.041700000000     0.332400000000     0.167200000000     0          
O        O      0.292300000000     0.084650000000     0.000000000000     0          
O        O      0.249300000000     0.124650000000     0.000000000000     0          
O        O      0.209300000000     0.041700000000     0.000533333333     0          
O        O      0.207650000000     0.292300000000     0.166666666667     0          
O        O      0.124650000000     0.249300000000     0.166666666667     0          
O        O      0.167600000000     0.209300000000     0.167200000000     0          
O        O      0.332400000000     0.041700000000     0.332800000000     0          
O        O      0.290700000000     0.332400000000     0.166133333333     0          
O        O      0.458300000000     0.290700000000     0.332800000000     0          
O        O      0.167600000000     0.458300000000     0.166133333333     0          
O        O      0.209300000000     0.167600000000     0.332800000000     0          
O        O      0.041700000000     0.209300000000     0.166133333333     0          
O        O      0.084650000000     0.292350000000     0.333333333333     0          
O        O      0.124650000000     0.375350000000     0.333333333333     0          
O        O      0.041700000000     0.332400000000     0.666133333333     0          
O        O      0.084050000000     0.333350000000     0.583333333333     0          
O        O      0.250000000000     0.000000000000     0.333333333333     0          
O        O      0.291650000000     0.000000000000     0.416666666667     0          
O        O      0.292300000000     0.084650000000     0.500000000000     0          
O        O      0.249300000000     0.124650000000     0.500000000000     0          
O        O      0.209300000000     0.041700000000     0.499466666667     0          
O        O      0.250700000000     0.084050000000     0.416666666667     0          
O        O      0.250000000000     0.250000000000     0.500000000000     0          
O        O      0.291650000000     0.291650000000     0.583333333333     0          
O        O      0.207650000000     0.292300000000     0.333333333333     0          
O        O      0.124650000000     0.249300000000     0.333333333333     0          
O        O      0.167600000000     0.209300000000     0.666133333333     0          
O        O      0.166650000000     0.250700000000     0.583333333333     0          
O        O      0.000000000000     0.250000000000     0.333333333333     0          
O        O      0.000000000000     0.291650000000     0.416666666667     0          
O        O      0.415350000000     0.207650000000     0.500000000000     0          
O        O      0.375350000000     0.124650000000     0.500000000000     0          
O        O      0.458300000000     0.167600000000     0.499466666667     0          
O        O      0.415950000000     0.166650000000     0.416666666667     0          
O        O      0.250000000000     0.000000000000     0.500000000000     0          
O        O      0.208350000000     0.000000000000     0.583333333333     0          
O        O      0.207700000000     0.415350000000     0.333333333333     0          
O        O      0.250700000000     0.375350000000     0.333333333333     0          
O        O      0.290700000000     0.458300000000     0.666133333333     0          
O        O      0.249300000000     0.415950000000     0.583333333333     0          
O        O      0.250000000000     0.250000000000     0.333333333333     0          
O        O      0.208350000000     0.208350000000     0.416666666667     0          
O        O      0.292350000000     0.207700000000     0.500000000000     0          
O        O      0.375350000000     0.250700000000     0.500000000000     0          
O        O      0.332400000000     0.290700000000     0.499466666667     0          
O        O      0.333350000000     0.249300000000     0.416666666667     0          
O        O      0.000000000000     0.250000000000     0.500000000000     0          
O        O      0.000000000000     0.208350000000     0.583333333333     0          
O        O      0.167600000000     0.458300000000     0.333866666667     0          
O        O      0.166650000000     0.415950000000     0.416666666667     0          
O        O      0.209300000000     0.167600000000     0.500533333333     0          
O        O      0.250700000000     0.166650000000     0.583333333333     0          
O        O      0.041700000000     0.209300000000     0.333866666667     0          
O        O      0.084050000000     0.250700000000     0.416666666667     0          
O        O      0.332400000000     0.041700000000     0.500533333333     0          
O        O      0.333350000000     0.084050000000     0.583333333333     0          
O        O      0.290700000000     0.332400000000     0.333866666667     0          
O        O      0.249300000000     0.333350000000     0.416666666667     0          
O        O      0.458300000000     0.290700000000     0.500533333333     0          
O        O      0.415950000000     0.249300000000     0.583333333333     0          
O        O      0.415350000000     0.207650000000     0.333333333333     0          
O        O      0.375350000000     0.124650000000     0.333333333333     0          
O        O      0.458300000000     0.167600000000     0.333866666667     0          
O        O      0.207700000000     0.415350000000     0.500000000000     0          
O        O      0.250700000000     0.375350000000     0.500000000000     0          
O        O      0.290700000000     0.458300000000     0.500533333333     0          
O        O      0.292350000000     0.207700000000     0.333333333333     0          
O        O      0.375350000000     0.250700000000     0.333333333333     0          
O        O      0.332400000000     0.290700000000     0.333866666667     0          
O        O      0.084650000000     0.292350000000     0.500000000000     0          
O        O      0.124650000000     0.375350000000     0.500000000000     0          
O        O      0.041700000000     0.332400000000     0.500533333333     0          
O        O      0.292300000000     0.084650000000     0.333333333333     0          
O        O      0.249300000000     0.124650000000     0.333333333333     0          
O        O      0.209300000000     0.041700000000     0.333866666667     0          
O        O      0.207650000000     0.292300000000     0.500000000000     0          
O        O      0.124650000000     0.249300000000     0.500000000000     0          
O        O      0.167600000000     0.209300000000     0.500533333333     0          
O        O      0.332400000000     0.041700000000     0.666133333333     0          
O        O      0.290700000000     0.332400000000     0.499466666667     0          
O        O      0.458300000000     0.290700000000     0.666133333333     0          
O        O      0.167600000000     0.458300000000     0.499466666667     0          
O        O      0.209300000000     0.167600000000     0.666133333333     0          
O        O      0.041700000000     0.209300000000     0.499466666667     0          
O        O      0.084650000000     0.292350000000     0.666666666667     0          
O        O      0.124650000000     0.375350000000     0.666666666667     0          
O        O      0.041700000000     0.332400000000     0.999466666667     0          
O        O      0.084050000000     0.333350000000     0.916666666667     0          
O        O      0.250000000000     0.000000000000     0.666666666667     0          
O        O      0.291650000000     0.000000000000     0.750000000000     0          
O        O      0.292300000000     0.084650000000     0.833333333333     0          
O        O      0.249300000000     0.124650000000     0.833333333333     0          
O        O      0.209300000000     0.041700000000     0.832800000000     0          
O        O      0.250700000000     0.084050000000     0.750000000000     0          
O        O      0.250000000000     0.250000000000     0.833333333333     0          
O        O      0.291650000000     0.291650000000     0.916666666667     0          
O        O      0.207650000000     0.292300000000     0.666666666667     0          
O        O      0.124650000000     0.249300000000     0.666666666667     0          
O        O      0.167600000000     0.209300000000     0.999466666667     0          
O        O      0.166650000000     0.250700000000     0.916666666667     0          
O        O      0.000000000000     0.250000000000     0.666666666667     0          
O        O      0.000000000000     0.291650000000     0.750000000000     0          
O        O      0.415350000000     0.207650000000     0.833333333333     0          
O        O      0.375350000000     0.124650000000     0.833333333333     0          
O        O      0.458300000000     0.167600000000     0.832800000000     0          
O        O      0.415950000000     0.166650000000     0.750000000000     0          
O        O      0.250000000000     0.000000000000     0.833333333333     0          
O        O      0.208350000000     0.000000000000     0.916666666667     0          
O        O      0.207700000000     0.415350000000     0.666666666667     0          
O        O      0.250700000000     0.375350000000     0.666666666667     0          
O        O      0.290700000000     0.458300000000     0.999466666667     0          
O        O      0.249300000000     0.415950000000     0.916666666667     0          
O        O      0.250000000000     0.250000000000     0.666666666667     0          
O        O      0.208350000000     0.208350000000     0.750000000000     0          
O        O      0.292350000000     0.207700000000     0.833333333333     0          
O        O      0.375350000000     0.250700000000     0.833333333333     0          
O        O      0.332400000000     0.290700000000     0.832800000000     0          
O        O      0.333350000000     0.249300000000     0.750000000000     0          
O        O      0.000000000000     0.250000000000     0.833333333333     0          
O        O      0.000000000000     0.208350000000     0.916666666667     0          
O        O      0.167600000000     0.458300000000     0.667200000000     0          
O        O      0.166650000000     0.415950000000     0.750000000000     0          
O        O      0.209300000000     0.167600000000     0.833866666667     0          
O        O      0.250700000000     0.166650000000     0.916666666667     0          
O        O      0.041700000000     0.209300000000     0.667200000000     0          
O        O      0.084050000000     0.250700000000     0.750000000000     0          
O        O      0.332400000000     0.041700000000     0.833866666667     0          
O        O      0.333350000000     0.084050000000     0.916666666667     0          
O        O      0.290700000000     0.332400000000     0.667200000000     0          
O        O      0.249300000000     0.333350000000     0.750000000000     0          
O        O      0.458300000000     0.290700000000     0.833866666667     0          
O        O      0.415950000000     0.249300000000     0.916666666667     0          
O        O      0.415350000000     0.207650000000     0.666666666667     0          
O        O      0.375350000000     0.124650000000     0.666666666667     0          
O        O      0.458300000000     0.167600000000     0.667200000000     0          
O        O      0.207700000000     0.415350000000     0.833333333333     0          
O        O      0.250700000000     0.375350000000     0.833333333333     0          
O        O      0.290700000000     0.458300000000     0.833866666667     0          
O        O      0.292350000000     0.207700000000     0.666666666667     0          
O        O      0.375350000000     0.250700000000     0.666666666667     0          
O        O      0.332400000000     0.290700000000     0.667200000000     0          
O        O      0.084650000000     0.292350000000     0.833333333333     0          
O        O      0.124650000000     0.375350000000     0.833333333333     0          
O        O      0.041700000000     0.332400000000     0.833866666667     0          
O        O      0.292300000000     0.084650000000     0.666666666667     0          
O        O      0.249300000000     0.124650000000     0.666666666667     0          
O        O      0.209300000000     0.041700000000     0.667200000000     0          
O        O      0.207650000000     0.292300000000     0.833333333333     0          
O        O      0.124650000000     0.249300000000     0.833333333333     0          
O        O      0.167600000000     0.209300000000     0.833866666667     0          
O        O      0.332400000000     0.041700000000     0.999466666667     0          
O        O      0.290700000000     0.332400000000     0.832800000000     0          
O        O      0.458300000000     0.290700000000     0.999466666667     0          
O        O      0.167600000000     0.458300000000     0.832800000000     0          
O        O      0.209300000000     0.167600000000     0.999466666667     0          
O        O      0.041700000000     0.209300000000     0.832800000000     0          
O        O      0.084650000000     0.792350000000     0.000000000000     0          
O        O      0.124650000000     0.875350000000     0.000000000000     0          
O        O      0.041700000000     0.832400000000     0.332800000000     0          
O        O      0.084050000000     0.833350000000     0.250000000000     0          
O        O      0.250000000000     0.500000000000     0.000000000000     0          
O        O      0.291650000000     0.500000000000     0.083333333333     0          
O        O      0.292300000000     0.584650000000     0.166666666667     0          
O        O      0.249300000000     0.624650000000     0.166666666667     0          
O        O      0.209300000000     0.541700000000     0.166133333333     0          
O        O      0.250700000000     0.584050000000     0.083333333333     0          
O        O      0.250000000000     0.750000000000     0.166666666667     0          
O        O      0.291650000000     0.791650000000     0.250000000000     0          
O        O      0.207650000000     0.792300000000     0.000000000000     0          
O        O      0.124650000000     0.749300000000     0.000000000000     0          
O        O      0.167600000000     0.709300000000     0.332800000000     0          
O        O      0.166650000000     0.750700000000     0.250000000000     0          
O        O      0.000000000000     0.750000000000     0.000000000000     0          
O        O      0.000000000000     0.791650000000     0.083333333333     0          
O        O      0.415350000000     0.707650000000     0.166666666667     0          
O        O      0.375350000000     0.624650000000     0.166666666667     0          
O        O      0.458300000000     0.667600000000     0.166133333333     0          
O        O      0.415950000000     0.666650000000     0.083333333333     0          
O        O      0.250000000000     0.500000000000     0.166666666667     0          
O        O      0.208350000000     0.500000000000     0.250000000000     0          
O        O      0.207700000000     0.915350000000     0.000000000000     0          
O        O      0.250700000000     0.875350000000     0.000000000000     0          
O        O      0.290700000000     0.958300000000     0.332800000000     0          
O        O      0.249300000000     0.915950000000     0.250000000000     0          
O        O      0.250000000000     0.750000000000     0.000000000000     0          
O        O      0.208350000000     0.708350000000     0.083333333333     0          
O        O      0.292350000000     0.707700000000     0.166666666667     0          
O        O      0.375350000000     0.750700000000     0.166666666667     0          
O        O      0.332400000000     0.790700000000     0.166133333333     0          
O        O      0.333350000000     0.749300000000     0.083333333333     0          
O        O      0.000000000000     0.750000000000     0.166666666667     0          
O        O      0.000000000000     0.708350000000     0.250000000000     0          
O        O      0.167600000000     0.958300000000     0.000533333333     0          
O        O      0.166650000000     0.915950000000     0.083333333333     0          
O        O      0.209300000000     0.667600000000     0.167200000000     0          
O        O      0.250700000000     0.666650000000     0.250000000000     0          
O        O      0.041700000000     0.709300000000     0.000533333333     0          
O        O      0.084050000000     0.750700000000     0.083333333333     0          
O        O      0.332400000000     0.541700000000     0.167200000000     0          
O        O      0.333350000000     0.584050000000     0.250000000000     0          
O        O      0.290700000000     0.832400000000     0.000533333333     0          
O        O      0.249300000000     0.833350000000     0.083333333333     0          
O        O      0.458300000000     0.790700000000     0.167200000000     0          
O        O      0.415950000000     0.749300000000     0.250000000000     0          
O        O      0.415350000000     0.707650000000     0.000000000000     0          
O        O      0.375350000000     0.624650000000     0.000000000000     0          
O        O      0.458300000000     0.667600000000     0.000533333333     0          
O        O      0.207700000000     0.915350000000     0.166666666667     0          
O        O      0.250700000000     0.875350000000     0.166666666667     0          
O        O      0.290700000000     0.958300000000     0.167200000000     0          
O        O      0.292350000000     0.707700000000     0.000000000000     0          
O        O      0.375350000000     0.750700000000     0.000000000000     0          
O        O      0.332400000000     0.790700000000     0.000533333333     0          
O        O      0.084650000000     0.792350000000     0.166666666667     0          
O        O      0.124650000000     0.875350000000     0.166666666667     0          
O        O      0.041700000000     0.832400000000     0.167200000000     0          
O        O      0.292300000000     0.584650000000     0.000000000000     0          
O        O      0.249300000000     0.624650000000     0.000000000000     0          
O        O      0.209300000000     0.541700000000     0.000533333333     0          
O        O      0.207650000000     0.792300000000     0.166666666667     0          
O        O      0.124650000000     0.749300000000     0.166666666667     0          
O        O      0.167600000000     0.709300000000     0.167200000000     0          
O        O      0.332400000000     0.541700000000     0.332800000000     0          
O        O      0.290700000000     0.832400000000     0.166133333333     0          
O        O      0.458300000000     0.790700000000     0.332800000000     0          
O        O      0.167600000000     0.958300000000     0.166133333333     0          
O        O      0.209300000000     0.667600000000     0.332800000000     0          
O        O      0.041700000000     0.709300000000     0.166133333333     0          
O        O      0.084650000000     0.792350000000     0.333333333333     0          
O        O      0.124650000000     0.875350000000     0.333333333333     0          
O        O      0.041700000000     0.832400000000     0.666133333333     0          
O        O      0.084050000000     0.833350000000     0.583333333333     0          
O        O      0.250000000000     0.500000000000     0.333333333333     0          
O        O      0.291650000000     0.500000000000     0.416666666667     0          
O        O      0.292300000000     0.584650000000     0.500000000000     0          
O        O      0.249300000000     0.624650000000     0.500000000000     0          
O        O      0.209300000000     0.541700000000     0.499466666667     0          
O        O      0.250700000000     0.584050000000     0.416666666667     0          
O        O      0.250000000000     0.750000000000     0.500000000000     0          
O        O      0.291650000000     0.791650000000     0.583333333333     0          
O        O      0.207650000000     0.792300000000     0.333333333333     0          
O        O      0.124650000000     0.749300000000     0.333333333333     0          
O        O      0.167600000000     0.709300000000     0.666133333333     0          
O        O      0.166650000000     0.750700000000     0.583333333333     0          
O        O      0.000000000000     0.750000000000     0.333333333333     0          
O        O      0.000000000000     0.791650000000     0.416666666667     0          
O        O      0.415350000000     0.707650000000     0.500000000000     0          
O        O      0.375350000000     0.624650000000     0.500000000000     0          
O        O      0.458300000000     0.667600000000     0.499466666667     0          
O        O      0.415950000000     0.666650000000     0.416666666667     0          
O        O      0.250000000000     0.500000000000     0.500000000000     0          
O        O      0.208350000000     0.500000000000     0.583333333333     0          
O        O      0.207700000000     0.915350000000     0.333333333333     0          
O        O      0.250700000000     0.875350000000     0.333333333333     0          
O        O      0.290700000000     0.958300000000     0.666133333333     0          
O        O      0.249300000000     0.915950000000     0.583333333333     0          
O        O      0.250000000000     0.750000000000     0.333333333333     0          
O        O      0.208350000000     0.708350000000     0.416666666667     0          
O        O      0.292350000000     0.707700000000     0.500000000000     0          
O        O      0.375350000000     0.750700000000     0.500000000000     0          
O        O      0.332400000000     0.790700000000     0.499466666667     0          
O        O      0.333350000000     0.749300000000     0.416666666667     0          
O        O      0.000000000000     0.750000000000     0.500000000000     0          
O        O      0.000000000000     0.708350000000     0.583333333333     0          
O        O      0.167600000000     0.958300000000     0.333866666667     0          
O        O      0.166650000000     0.915950000000     0.416666666667     0          
O        O      0.209300000000     0.667600000000     0.500533333333     0          
O        O      0.250700000000     0.666650000000     0.583333333333     0          
O        O      0.041700000000     0.709300000000     0.333866666667     0          
O        O      0.084050000000     0.750700000000     0.416666666667     0          
O        O      0.332400000000     0.541700000000     0.500533333333     0          
O        O      0.333350000000     0.584050000000     0.583333333333     0          
O        O      0.290700000000     0.832400000000     0.333866666667     0          
O        O      0.249300000000     0.833350000000     0.416666666667     0          
O        O      0.458300000000     0.790700000000     0.500533333333     0          
O        O      0.415950000000     0.749300000000     0.583333333333     0          
O        O      0.415350000000     0.707650000000     0.333333333333     0          
O        O      0.375350000000     0.624650000000     0.333333333333     0          
O        O      0.458300000000     0.667600000000     0.333866666667     0          
O        O      0.207700000000     0.915350000000     0.500000000000     0          
O        O      0.250700000000     0.875350000000     0.500000000000     0          
O        O      0.290700000000     0.958300000000     0.500533333333     0          
O        O      0.292350000000     0.707700000000     0.333333333333     0          
O        O      0.375350000000     0.750700000000     0.333333333333     0          
O        O      0.332400000000     0.790700000000     0.333866666667     0          
O        O      0.084650000000     0.792350000000     0.500000000000     0          
O        O      0.124650000000     0.875350000000     0.500000000000     0          
O        O      0.041700000000     0.832400000000     0.500533333333     0          
O        O      0.292300000000     0.584650000000     0.333333333333     0          
O        O      0.249300000000     0.624650000000     0.333333333333     0          
O        O      0.209300000000     0.541700000000     0.333866666667     0          
O        O      0.207650000000     0.792300000000     0.500000000000     0          
O        O      0.124650000000     0.749300000000     0.500000000000     0          
O        O      0.167600000000     0.709300000000     0.500533333333     0          
O        O      0.332400000000     0.541700000000     0.666133333333     0          
O        O      0.290700000000     0.832400000000     0.499466666667     0          
O        O      0.458300000000     0.790700000000     0.666133333333     0          
O        O      0.167600000000     0.958300000000     0.499466666667     0          
O        O      0.209300000000     0.667600000000     0.666133333333     0          
O        O      0.041700000000     0.709300000000     0.499466666667     0          
O        O      0.084650000000     0.792350000000     0.666666666667     0          
O        O      0.124650000000     0.875350000000     0.666666666667     0          
O        O      0.041700000000     0.832400000000     0.999466666667     0          
O        O      0.084050000000     0.833350000000     0.916666666667     0          
O        O      0.250000000000     0.500000000000     0.666666666667     0          
O        O      0.291650000000     0.500000000000     0.750000000000     0          
O        O      0.292300000000     0.584650000000     0.833333333333     0          
O        O      0.249300000000     0.624650000000     0.833333333333     0          
O        O      0.209300000000     0.541700000000     0.832800000000     0          
O        O      0.250700000000     0.584050000000     0.750000000000     0          
O        O      0.250000000000     0.750000000000     0.833333333333     0          
O        O      0.291650000000     0.791650000000     0.916666666667     0          
O        O      0.207650000000     0.792300000000     0.666666666667     0          
O        O      0.124650000000     0.749300000000     0.666666666667     0          
O        O      0.167600000000     0.709300000000     0.999466666667     0          
O        O      0.166650000000     0.750700000000     0.916666666667     0          
O        O      0.000000000000     0.750000000000     0.666666666667     0          
O        O      0.000000000000     0.791650000000     0.750000000000     0          
O        O      0.415350000000     0.707650000000     0.833333333333     0          
O        O      0.375350000000     0.624650000000     0.833333333333     0          
O        O      0.458300000000     0.667600000000     0.832800000000     0          
O        O      0.415950000000     0.666650000000     0.750000000000     0          
O        O      0.250000000000     0.500000000000     0.833333333333     0          
O        O      0.208350000000     0.500000000000     0.916666666667     0          
O        O      0.207700000000     0.915350000000     0.666666666667     0          
O        O      0.250700000000     0.875350000000     0.666666666667     0          
O        O      0.290700000000     0.958300000000     0.999466666667     0          
O        O      0.249300000000     0.915950000000     0.916666666667     0          
O        O      0.250000000000     0.750000000000     0.666666666667     0          
O        O      0.208350000000     0.708350000000     0.750000000000     0          
O        O      0.292350000000     0.707700000000     0.833333333333     0          
O        O      0.375350000000     0.750700000000     0.833333333333     0          
O        O      0.332400000000     0.790700000000     0.832800000000     0          
O        O      0.333350000000     0.749300000000     0.750000000000     0          
O        O      0.000000000000     0.750000000000     0.833333333333     0          
O        O      0.000000000000     0.708350000000     0.916666666667     0          
O        O      0.167600000000     0.958300000000     0.667200000000     0          
O        O      0.166650000000     0.915950000000     0.750000000000     0          
O        O      0.209300000000     0.667600000000     0.833866666667     0          
O        O      0.250700000000     0.666650000000     0.916666666667     0          
O        O      0.041700000000     0.709300000000     0.667200000000     0          
O        O      0.084050000000     0.750700000000     0.750000000000     0          
O        O      0.332400000000     0.541700000000     0.833866666667     0          
O        O      0.333350000000     0.584050000000     0.916666666667     0          
O        O      0.290700000000     0.832400000000     0.667200000000     0          
O        O      0.249300000000     0.833350000000     0.750000000000     0          
O        O      0.458300000000     0.790700000000     0.833866666667     0          
O        O      0.415950000000     0.749300000000     0.916666666667     0          
O        O      0.415350000000     0.707650000000     0.666666666667     0          
O        O      0.375350000000     0.624650000000     0.666666666667     0          
O        O      0.458300000000     0.667600000000     0.667200000000     0          
O        O      0.207700000000     0.915350000000     0.833333333333     0          
O        O      0.250700000000     0.875350000000     0.833333333333     0          
O        O      0.290700000000     0.958300000000     0.833866666667     0          
O        O      0.292350000000     0.707700000000     0.666666666667     0          
O        O      0.375350000000     0.750700000000     0.666666666667     0          
O        O      0.332400000000     0.790700000000     0.667200000000     0          
O        O      0.084650000000     0.792350000000     0.833333333333     0          
O        O      0.124650000000     0.875350000000     0.833333333333     0          
O        O      0.041700000000     0.832400000000     0.833866666667     0          
O        O      0.292300000000     0.584650000000     0.666666666667     0          
O        O      0.249300000000     0.624650000000     0.666666666667     0          
O        O      0.209300000000     0.541700000000     0.667200000000     0          
O        O      0.207650000000     0.792300000000     0.833333333333     0          
O        O      0.124650000000     0.749300000000     0.833333333333     0          
O        O      0.167600000000     0.709300000000     0.833866666667     0          
O        O      0.332400000000     0.541700000000     0.999466666667     0          
O        O      0.290700000000     0.832400000000     0.832800000000     0          
O        O      0.458300000000     0.790700000000     0.999466666667     0          
O        O      0.167600000000     0.958300000000     0.832800000000     0          
O        O      0.209300000000     0.667600000000     0.999466666667     0          
O        O      0.041700000000     0.709300000000     0.832800000000     0          
O        O      0.584650000000     0.292350000000     0.000000000000     0          
O        O      0.624650000000     0.375350000000     0.000000000000     0          
O        O      0.541700000000     0.332400000000     0.332800000000     0          
O        O      0.584050000000     0.333350000000     0.250000000000     0          
O        O      0.750000000000     0.000000000000     0.000000000000     0          
O        O      0.791650000000     0.000000000000     0.083333333333     0          
O        O      0.792300000000     0.084650000000     0.166666666667     0          
O        O      0.749300000000     0.124650000000     0.166666666667     0          
O        O      0.709300000000     0.041700000000     0.166133333333     0          
O        O      0.750700000000     0.084050000000     0.083333333333     0          
O        O      0.750000000000     0.250000000000     0.166666666667     0          
O        O      0.791650000000     0.291650000000     0.250000000000     0          
O        O      0.707650000000     0.292300000000     0.000000000000     0          
O        O      0.624650000000     0.249300000000     0.000000000000     0          
O        O      0.667600000000     0.209300000000     0.332800000000     0          
O        O      0.666650000000     0.250700000000     0.250000000000     0          
O        O      0.500000000000     0.250000000000     0.000000000000     0          
O        O      0.500000000000     0.291650000000     0.083333333333     0          
O        O      0.915350000000     0.207650000000     0.166666666667     0          
O        O      0.875350000000     0.124650000000     0.166666666667     0          
O        O      0.958300000000     0.167600000000     0.166133333333     0          
O        O      0.915950000000     0.166650000000     0.083333333333     0          
O        O      0.750000000000     0.000000000000     0.166666666667     0          
O        O      0.708350000000     0.000000000000     0.250000000000     0          
O        O      0.707700000000     0.415350000000     0.000000000000     0          
O        O      0.750700000000     0.375350000000     0.000000000000     0          
O        O      0.790700000000     0.458300000000     0.332800000000     0          
O        O      0.749300000000     0.415950000000     0.250000000000     0          
O        O      0.750000000000     0.250000000000     0.000000000000     0          
O        O      0.708350000000     0.208350000000     0.083333333333     0          
O        O      0.792350000000     0.207700000000     0.166666666667     0          
O        O      0.875350000000     0.250700000000     0.166666666667     0          
O        O      0.832400000000     0.290700000000     0.166133333333     0          
O        O      0.833350000000     0.249300000000     0.083333333333     0          
O        O      0.500000000000     0.250000000000     0.166666666667     0          
O        O      0.500000000000     0.208350000000     0.250000000000     0          
O        O      0.667600000000     0.458300000000     0.000533333333     0          
O        O      0.666650000000     0.415950000000     0.083333333333     0          
O        O      0.709300000000     0.167600000000     0.167200000000     0          
O        O      0.750700000000     0.166650000000     0.250000000000     0          
O        O      0.541700000000     0.209300000000     0.000533333333     0          
O        O      0.584050000000     0.250700000000     0.083333333333     0          
O        O      0.832400000000     0.041700000000     0.167200000000     0          
O        O      0.833350000000     0.084050000000     0.250000000000     0          
O        O      0.790700000000     0.332400000000     0.000533333333     0          
O        O      0.749300000000     0.333350000000     0.083333333333     0          
O        O      0.958300000000     0.290700000000     0.167200000000     0          
O        O      0.915950000000     0.249300000000     0.250000000000     0          
O        O      0.915350000000     0.207650000000     0.000000000000     0          
O        O      0.875350000000     0.124650000000     0.000000000000     0          
O        O      0.958300000000     0.167600000000     0.000533333333     0          
O        O      0.707700000000     0.415350000000     0.166666666667     0          
O        O      0.750700000000     0.375350000000     0.166666666667     0          
O        O      0.790700000000     0.458300000000     0.167200000000     0          
O        O      0.792350000000     0.207700000000     0.000000000000     0          
O        O      0.875350000000     0.250700000000     0.000000000000     0          
O        O      0.832400000000     0.290700000000     0.000533333333     0          
O        O      0.584650000000     0.292350000000     0.166666666667     0          
O        O      0.624650000000     0.375350000000     0.166666666667     0          
O        O      0.541700000000     0.332400000000     0.167200000000     0          
O        O      0.792300000000     0.084650000000     0.000000000000     0          
O        O      0.749300000000     0.124650000000     0.000000000000     0          
O        O      0.709300000000     0.041700000000     0.000533333333     0          
O        O      0.707650000000     0.292300000000     0.166666666667     0          
O        O      0.624650000000     0.249300000000     0.166666666667     0          
O        O      0.667600000000     0.209300000000     0.167200000000     0          
O        O      0.832400000000     0.041700000000     0.332800000000     0          
O        O      0.790700000000     0.332400000000     0.166133333333     0          
O        O      0.958300000000     0.290700000000     0.332800000000     0          
O        O      0.667600000000     0.458300000000     0.166133333333     0          
O        O      0.709300000000     0.167600000000     0.332800000000     0          
O        O      0.541700000000     0.209300000000     0.166133333333     0          
O        O      0.584650000000     0.292350000000     0.333333333333     0          
O        O      0.624650000000     0.375350000000     0.333333333333     0          
O        O      0.541700000000     0.332400000000     0.666133333333     0          
O        O      0.584050000000     0.333350000000     0.583333333333     0          
O        O      0.750000000000     0.000000000000     0.333333333333     0          
O        O      0.791650000000     0.000000000000     0.416666666667     0          
O        O      0.792300000000     0.084650000000     0.500000000000     0          
O        O      0.749300000000     0.124650000000     0.500000000000     0          
O        O      0.709300000000     0.041700000000     0.499466666667     0          
O        O      0.750700000000     0.084050000000     0.416666666667     0          
O        O      0.750000000000     0.250000000000     0.500000000000     0          
O        O      0.791650000000     0.291650000000     0.583333333333     0          
O        O      0.707650000000     0.292300000000     0.333333333333     0          
O        O      0.624650000000     0.249300000000     0.333333333333     0          
O        O      0.667600000000     0.209300000000     0.666133333333     0          
O        O      0.666650000000     0.250700000000     0.583333333333     0          
O        O      0.500000000000     0.250000000000     0.333333333333     0          
O        O      0.500000000000     0.291650000000     0.416666666667     0          
O        O      0.915350000000     0.207650000000     0.500000000000     0          
O        O      0.875350000000     0.124650000000     0.500000000000     0          
O        O      0.958300000000     0.167600000000     0.499466666667     0          
O        O      0.915950000000     0.166650000000     0.416666666667     0          
O        O      0.750000000000     0.000000000000     0.500000000000     0          
O        O      0.708350000000     0.000000000000     0.583333333333     0          
O        O      0.707700000000     0.415350000000     0.333333333333     0          
O        O      0.750700000000     0.375350000000     0.333333333333     0          
O        O      0.790700000000     0.458300000000     0.666133333333     0          
O        O      0.749300000000     0.415950000000     0.583333333333     0          
O        O      0.750000000000     0.250000000000     0.333333333333     0          
O        O      0.708350000000     0.208350000000     0.416666666667     0          
O        O      0.792350000000     0.207700000000     0.500000000000     0          
O        O      0.875350000000     0.250700000000     0.500000000000     0          
O        O      0.832400000000     0.290700000000     0.499466666667     0          
O        O      0.833350000000     0.249300000000     0.416666666667     0          
O        O      0.500000000000     0.250000000000     0.500000000000     0          
O        O      0.500000000000     0.208350000000     0.583333333333     0          
O        O      0.667600000000     0.458300000000     0.333866666667     0          
O        O      0.666650000000     0.415950000000     0.416666666667     0          
O        O      0.709300000000     0.167600000000     0.500533333333     0          
O        O      0.750700000000     0.166650000000     0.583333333333     0          
O        O      0.541700000000     0.209300000000     0.333866666667     0          
O        O      0.584050000000     0.250700000000     0.416666666667     0          
O        O      0.832400000000     0.041700000000     0.500533333333     0          
O        O      0.833350000000     0.084050000000     0.583333333333     0          
O        O      0.790700000000     0.332400000000     0.333866666667     0          
O        O      0.749300000000     0.333350000000     0.416666666667     0          
O        O      0.958300000000     0.290700000000     0.500533333333     0          
O        O      0.915950000000     0.249300000000     0.583333333333     0          
O        O      0.915350000000     0.207650000000     0.333333333333     0          
O        O      0.875350000000     0.124650000000     0.333333333333     0          
O        O      0.958300000000     0.167600000000     0.333866666667     0          
O        O      0.707700000000     0.415350000000     0.500000000000     0          
O        O      0.750700000000     0.375350000000     0.500000000000     0          
O        O      0.790700000000     0.458300000000     0.500533333333     0          
O        O      0.792350000000     0.207700000000     0.333333333333     0          
O        O      0.875350000000     0.250700000000     0.333333333333     0          
O        O      0.832400000000     0.290700000000     0.333866666667     0          
O        O      0.584650000000     0.292350000000     0.500000000000     0          
O        O      0.624650000000     0.375350000000     0.500000000000     0          
O        O      0.541700000000     0.332400000000     0.500533333333     0          
O        O      0.792300000000     0.084650000000     0.333333333333     0          
O        O      0.749300000000     0.124650000000     0.333333333333     0          
O        O      0.709300000000     0.041700000000     0.333866666667     0          
O        O      0.707650000000     0.292300000000     0.500000000000     0          
O        O      0.624650000000     0.249300000000     0.500000000000     0          
O        O      0.667600000000     0.209300000000     0.500533333333     0          
O        O      0.832400000000     0.041700000000     0.666133333333     0          
O        O      0.790700000000     0.332400000000     0.499466666667     0          
O        O      0.958300000000     0.290700000000     0.666133333333     0          
O        O      0.667600000000     0.458300000000     0.499466666667     0          
O        O      0.709300000000     0.167600000000     0.666133333333     0          
O        O      0.541700000000     0.209300000000     0.499466666667     0          
O        O      0.584650000000     0.292350000000     0.666666666667     0          
O        O      0.624650000000     0.375350000000     0.666666666667     0          
O        O      0.541700000000     0.332400000000     0.999466666667     0          
O        O      0.584050000000     0.333350000000     0.916666666667     0          
O        O      0.750000000000     0.000000000000     0.666666666667     0          
O        O      0.791650000000     0.000000000000     0.750000000000     0          
O        O      0.792300000000     0.084650000000     0.833333333333     0          
O        O      0.749300000000     0.124650000000     0.833333333333     0          
O        O      0.709300000000     0.041700000000     0.832800000000     0          
O        O      0.750700000000     0.084050000000     0.750000000000     0          
O        O      0.750000000000     0.250000000000     0.833333333333     0          
O        O      0.791650000000     0.291650000000     0.916666666667     0          
O        O      0.707650000000     0.292300000000     0.666666666667     0          
O        O      0.624650000000     0.249300000000     0.666666666667     0          
O        O      0.667600000000     0.209300000000     0.999466666667     0          
O        O      0.666650000000     0.250700000000     0.916666666667     0          
O        O      0.500000000000     0.250000000000     0.666666666667     0          
O        O      0.500000000000     0.291650000000     0.750000000000     0          
O        O      0.915350000000     0.207650000000     0.833333333333     0          
O        O      0.875350000000     0.124650000000     0.833333333333     0          
O        O      0.958300000000     0.167600000000     0.832800000000     0          
O        O      0.915950000000     0.166650000000     0.750000000000     0          
O        O      0.750000000000     0.000000000000     0.833333333333     0          
O        O      0.708350000000     0.000000000000     0.916666666667     0          
O        O      0.707700000000     0.415350000000     0.666666666667     0          
O        O      0.750700000000     0.375350000000     0.666666666667     0          
O        O      0.790700000000     0.458300000000     0.999466666667     0          
O        O      0.749300000000     0.415950000000     0.916666666667     0          
O        O      0.750000000000     0.250000000000     0.666666666667     0          
O        O      0.708350000000     0.208350000000     0.750000000000     0          
O        O      0.792350000000     0.207700000000     0.833333333333     0          
O        O      0.875350000000     0.250700000000     0.833333333333     0          
O        O      0.832400000000     0.290700000000     0.832800000000     0          
O        O      0.833350000000     0.249300000000     0.750000000000     0          
O        O      0.500000000000     0.250000000000     0.833333333333     0          
O        O      0.500000000000     0.208350000000     0.916666666667     0          
O        O      0.667600000000     0.458300000000     0.667200000000     0          
O        O      0.666650000000     0.415950000000     0.750000000000     0          
O        O      0.709300000000     0.167600000000     0.833866666667     0          
O        O      0.750700000000     0.166650000000     0.916666666667     0          
O        O      0.541700000000     0.209300000000     0.667200000000     0          
O        O      0.584050000000     0.250700000000     0.750000000000     0          
O        O      0.832400000000     0.041700000000     0.833866666667     0          
O        O      0.833350000000     0.084050000000     0.916666666667     0          
O        O      0.790700000000     0.332400000000     0.667200000000     0          
O        O      0.749300000000     0.333350000000     0.750000000000     0          
O        O      0.958300000000     0.290700000000     0.833866666667     0          
O        O      0.915950000000     0.249300000000     0.916666666667     0          
O        O      0.915350000000     0.207650000000     0.666666666667     0          
O        O      0.875350000000     0.124650000000     0.666666666667     0          
O        O      0.958300000000     0.167600000000     0.667200000000     0          
O        O      0.707700000000     0.415350000000     0.833333333333     0          
O        O      0.750700000000     0.375350000000     0.833333333333     0          
O        O      0.790700000000     0.458300000000     0.833866666667     0          
O        O      0.792350000000     0.207700000000     0.666666666667     0          
O        O      0.875350000000     0.250700000000     0.666666666667     0          
O        O      0.832400000000     0.290700000000     0.667200000000     0          
O        O      0.584650000000     0.292350000000     0.833333333333     0          
O        O      0.624650000000     0.375350000000     0.833333333333     0          
O        O      0.541700000000     0.332400000000     0.833866666667     0          
O        O      0.792300000000     0.084650000000     0.666666666667     0          
O        O      0.749300000000     0.124650000000     0.666666666667     0          
O        O      0.709300000000     0.041700000000     0.667200000000     0          
O        O      0.707650000000     0.292300000000     0.833333333333     0          
O        O      0.624650000000     0.249300000000     0.833333333333     0          
O        O      0.667600000000     0.209300000000     0.833866666667     0          
O        O      0.832400000000     0.041700000000     0.999466666667     0          
O        O      0.790700000000     0.332400000000     0.832800000000     0          
O        O      0.958300000000     0.290700000000     0.999466666667     0          
O        O      0.667600000000     0.458300000000     0.832800000000     0          
O        O      0.709300000000     0.167600000000     0.999466666667     0          
O        O      0.541700000000     0.209300000000     0.832800000000     0          
O        O      0.584650000000     0.792350000000     0.000000000000     0          
O        O      0.624650000000     0.875350000000     0.000000000000     0          
O        O      0.541700000000     0.832400000000     0.332800000000     0          
O        O      0.584050000000     0.833350000000     0.250000000000     0          
O        O      0.750000000000     0.500000000000     0.000000000000     0          
O        O      0.791650000000     0.500000000000     0.083333333333     0          
O        O      0.792300000000     0.584650000000     0.166666666667     0          
O        O      0.749300000000     0.624650000000     0.166666666667     0          
O        O      0.709300000000     0.541700000000     0.166133333333     0          
O        O      0.750700000000     0.584050000000     0.083333333333     0          
O        O      0.750000000000     0.750000000000     0.166666666667     0          
O        O      0.791650000000     0.791650000000     0.250000000000     0          
O        O      0.707650000000     0.792300000000     0.000000000000     0          
O        O      0.624650000000     0.749300000000     0.000000000000     0          
O        O      0.667600000000     0.709300000000     0.332800000000     0          
O        O      0.666650000000     0.750700000000     0.250000000000     0          
O        O      0.500000000000     0.750000000000     0.000000000000     0          
O        O      0.500000000000     0.791650000000     0.083333333333     0          
O        O      0.915350000000     0.707650000000     0.166666666667     0          
O        O      0.875350000000     0.624650000000     0.166666666667     0          
O        O      0.958300000000     0.667600000000     0.166133333333     0          
O        O      0.915950000000     0.666650000000     0.083333333333     0          
O        O      0.750000000000     0.500000000000     0.166666666667     0          
O        O      0.708350000000     0.500000000000     0.250000000000     0          
O        O      0.707700000000     0.915350000000     0.000000000000     0          
O        O      0.750700000000     0.875350000000     0.000000000000     0          
O        O      0.790700000000     0.958300000000     0.332800000000     0          
O        O      0.749300000000     0.915950000000     0.250000000000     0          
O        O      0.750000000000     0.750000000000     0.000000000000     0          
O        O      0.708350000000     0.708350000000     0.083333333333     0          
O        O      0.792350000000     0.707700000000     0.166666666667     0          
O        O      0.875350000000     0.750700000000     0.166666666667     0          
O        O      0.832400000000     0.790700000000     0.166133333333     0          
O        O      0.833350000000     0.749300000000     0.083333333333     0          
O        O      0.500000000000     0.750000000000     0.166666666667     0          
O        O      0.500000000000     0.708350000000     0.250000000000     0          
O        O      0.667600000000     0.958300000000     0.000533333333     0          
O        O      0.666650000000     0.915950000000     0.083333333333     0          
O        O      0.709300000000     0.667600000000     0.167200000000     0          
O        O      0.750700000000     0.666650000000     0.250000000000     0          
O        O      0.541700000000     0.709300000000     0.000533333333     0          
O        O      0.584050000000     0.750700000000     0.083333333333     0          
O        O      0.832400000000     0.541700000000     0.167200000000     0          
O        O      0.833350000000     0.584050000000     0.250000000000     0          
O        O      0.790700000000     0.832400000000     0.000533333333     0          
O        O      0.749300000000     0.833350000000     0.083333333333     0          
O        O      0.958300000000     0.790700000000     0.167200000000     0          
O        O      0.915950000000     0.749300000000     0.250000000000     0          
O        O      0.915350000000     0.707650000000     0.000000000000     0          
O        O      0.875350000000     0.624650000000     0.000000000000     0          
O        O      0.958300000000     0.667600000000     0.000533333333     0          
O        O      0.707700000000     0.915350000000     0.166666666667     0          
O        O      0.750700000000     0.875350000000     0.166666666667     0          
O        O      0.790700000000     0.958300000000     0.167200000000     0          
O        O      0.792350000000     0.707700000000     0.000000000000     0          
O        O      0.875350000000     0.750700000000     0.000000000000     0          
O        O      0.832400000000     0.790700000000     0.000533333333     0          
O        O      0.584650000000     0.792350000000     0.166666666667     0          
O        O      0.624650000000     0.875350000000     0.166666666667     0          
O        O      0.541700000000     0.832400000000     0.167200000000     0          
O        O      0.792300000000     0.584650000000     0.000000000000     0          
O        O      0.749300000000     0.624650000000     0.000000000000     0          
O        O      0.709300000000     0.541700000000     0.000533333333     0          
O        O      0.707650000000     0.792300000000     0.166666666667     0          
O        O      0.624650000000     0.749300000000     0.166666666667     0          
O        O      0.667600000000     0.709300000000     0.167200000000     0          
O        O      0.832400000000     0.541700000000     0.332800000000     0          
O        O      0.790700000000     0.832400000000     0.166133333333     0          
O        O      0.958300000000     0.790700000000     0.332800000000     0          
O        O      0.667600000000     0.958300000000     0.166133333333     0          
O        O      0.709300000000     0.667600000000     0.332800000000     0          
O        O      0.541700000000     0.709300000000     0.166133333333     0          
O        O      0.584650000000     0.792350000000     0.333333333333     0          
O        O      0.624650000000     0.875350000000     0.333333333333     0          
O        O      0.541700000000     0.832400000000     0.666133333333     0          
O        O      0.584050000000     0.833350000000     0.583333333333     0          
O        O      0.750000000000     0.500000000000     0.333333333333     0          
O        O      0.791650000000     0.500000000000     0.416666666667     0          
O        O      0.792300000000     0.584650000000     0.500000000000     0          
O        O      0.749300000000     0.624650000000     0.500000000000     0          
O        O      0.709300000000     0.541700000000     0.499466666667     0          
O        O      0.750700000000     0.584050000000     0.416666666667     0          
O        O      0.750000000000     0.750000000000     0.500000000000     0          
O        O      0.791650000000     0.791650000000     0.583333333333     0          
O        O      0.707650000000     0.792300000000     0.333333333333     0          
O        O      0.624650000000     0.749300000000     0.333333333333     0          
O        O      0.667600000000     0.709300000000     0.666133333333     0          
O        O      0.666650000000     0.750700000000     0.583333333333     0          
O        O      0.500000000000     0.750000000000     0.333333333333     0          
O        O      0.500000000000     0.791650000000     0.416666666667     0          
O        O      0.915350000000     0.707650000000     0.500000000000     0          
O        O      0.875350000000     0.624650000000     0.500000000000     0          
O        O      0.958300000000     0.667600000000     0.499466666667     0          
O        O      0.915950000000     0.666650000000     0.416666666667     0          
O        O      0.750000000000     0.500000000000     0.500000000000     0          
O        O      0.708350000000     0.500000000000     0.583333333333     0          
O        O      0.707700000000     0.915350000000     0.333333333333     0          
O        O      0.750700000000     0.875350000000     0.333333333333     0          
O        O      0.790700000000     0.958300000000     0.666133333333     0          
O        O      0.749300000000     0.915950000000     0.583333333333     0          
O        O      0.750000000000     0.750000000000     0.333333333333     0          
O        O      0.708350000000     0.708350000000     0.416666666667     0          
O        O      0.792350000000     0.707700000000     0.500000000000     0          
O        O      0.875350000000     0.750700000000     0.500000000000     0          
O        O      0.832400000000     0.790700000000     0.499466666667     0          
O        O      0.833350000000     0.749300000000     0.416666666667     0          
O        O      0.500000000000     0.750000000000     0.500000000000     0          
O        O      0.500000000000     0.708350000000     0.583333333333     0          
O        O      0.667600000000     0.958300000000     0.333866666667     0          
O        O      0.666650000000     0.915950000000     0.416666666667     0          
O        O      0.709300000000     0.667600000000     0.500533333333     0          
O        O      0.750700000000     0.666650000000     0.583333333333     0          
O        O      0.541700000000     0.709300000000     0.333866666667     0          
O        O      0.584050000000     0.750700000000     0.416666666667     0          
O        O      0.832400000000     0.541700000000     0.500533333333     0          
O        O      0.833350000000     0.584050000000     0.583333333333     0          
O        O      0.790700000000     0.832400000000     0.333866666667     0          
O        O      0.749300000000     0.833350000000     0.416666666667     0          
O        O      0.958300000000     0.790700000000     0.500533333333     0          
O        O      0.915950000000     0.749300000000     0.583333333333     0          
O        O      0.915350000000     0.707650000000     0.333333333333     0          
O        O      0.875350000000     0.624650000000     0.333333333333     0          
O        O      0.958300000000     0.667600000000     0.333866666667     0          
O        O      0.707700000000     0.915350000000     0.500000000000     0          
O        O      0.750700000000     0.875350000000     0.500000000000     0          
O        O      0.790700000000     0.958300000000     0.500533333333     0          
O        O      0.792350000000     0.707700000000     0.333333333333     0          
O        O      0.875350000000     0.750700000000     0.333333333333     0          
O        O      0.832400000000     0.790700000000     0.333866666667     0          
O        O      0.584650000000     0.792350000000     0.500000000000     0          
O        O      0.624650000000     0.875350000000     0.500000000000     0          
O        O      0.541700000000     0.832400000000     0.500533333333     0          
O        O      0.792300000000     0.584650000000     0.333333333333     0          
O        O      0.749300000000     0.624650000000     0.333333333333     0          
O        O      0.709300000000     0.541700000000     0.333866666667     0          
O        O      0.707650000000     0.792300000000     0.500000000000     0          
O        O      0.624650000000     0.749300000000     0.500000000000     0          
O        O      0.667600000000     0.709300000000     0.500533333333     0          
O        O      0.832400000000     0.541700000000     0.666133333333     0          
O        O      0.790700000000     0.832400000000     0.499466666667     0          
O        O      0.958300000000     0.790700000000     0.666133333333     0          
O        O      0.667600000000     0.958300000000     0.499466666667     0          
O        O      0.709300000000     0.667600000000     0.666133333333     0          
O        O      0.541700000000     0.709300000000     0.499466666667     0          
O        O      0.584650000000     0.792350000000     0.666666666667     0          
O        O      0.624650000000     0.875350000000     0.666666666667     0          
O        O      0.541700000000     0.832400000000     0.999466666667     0          
O        O      0.584050000000     0.833350000000     0.916666666667     0          
O        O      0.750000000000     0.500000000000     0.666666666667     0          
O        O      0.791650000000     0.500000000000     0.750000000000     0          
O        O      0.792300000000     0.584650000000     0.833333333333     0          
O        O      0.749300000000     0.624650000000     0.833333333333     0          
O        O      0.709300000000     0.541700000000     0.832800000000     0          
O        O      0.750700000000     0.584050000000     0.750000000000     0          
O        O      0.750000000000     0.750000000000     0.833333333333     0          
O        O      0.791650000000     0.791650000000     0.916666666667     0          
O        O      0.707650000000     0.792300000000     0.666666666667     0          
O        O      0.624650000000     0.749300000000     0.666666666667     0          
O        O      0.667600000000     0.709300000000     0.999466666667     0          
O        O      0.666650000000     0.750700000000     0.916666666667     0          
O        O      0.500000000000     0.750000000000     0.666666666667     0          
O        O      0.500000000000     0.791650000000     0.750000000000     0          
O        O      0.915350000000     0.707650000000     0.833333333333     0          
O        O      0.875350000000     0.624650000000     0.833333333333     0          
O        O      0.958300000000     0.667600000000     0.832800000000     0          
O        O      0.915950000000     0.666650000000     0.750000000000     0          
O        O      0.750000000000     0.500000000000     0.833333333333     0          
O        O      0.708350000000     0.500000000000     0.916666666667     0          
O        O      0.707700000000     0.915350000000     0.666666666667     0          
O        O      0.750700000000     0.875350000000     0.666666666667     0          
O        O      0.790700000000     0.958300000000     0.999466666667     0          
O        O      0.749300000000     0.915950000000     0.916666666667     0          
O        O      0.750000000000     0.750000000000     0.666666666667     0          
O        O      0.708350000000     0.708350000000     0.750000000000     0          
O        O      0.792350000000     0.707700000000     0.833333333333     0          
O        O      0.875350000000     0.750700000000     0.833333333333     0          
O        O      0.832400000000     0.790700000000     0.832800000000     0          
O        O      0.833350000000     0.749300000000     0.750000000000     0          
O        O      0.500000000000     0.750000000000     0.833333333333     0          
O        O      0.500000000000     0.708350000000     0.916666666667     0          
O        O      0.667600000000     0.958300000000     0.667200000000     0          
O        O      0.666650000000     0.915950000000     0.750000000000     0          
O        O      0.709300000000     0.667600000000     0.833866666667     0          
O        O      0.750700000000     0.666650000000     0.916666666667     0          
O        O      0.541700000000     0.709300000000     0.667200000000     0          
O        O      0.584050000000     0.750700000000     0.750000000000     0          
O        O      0.832400000000     0.541700000000     0.833866666667     0          
O        O      0.833350000000     0.584050000000     0.916666666667     0          
O        O      0.790700000000     0.832400000000     0.667200000000     0          
O        O      0.749300000000     0.833350000000     0.750000000000     0          
O        O      0.958300000000     0.790700000000     0.833866666667     0          
O        O      0.915950000000     0.749300000000     0.916666666667     0          
O        O      0.915350000000     0.707650000000     0.666666666667     0          
O        O      0.875350000000     0.624650000000     0.666666666667     0          
O        O      0.958300000000     0.667600000000     0.667200000000     0          
O        O      0.707700000000     0.915350000000     0.833333333333     0          
O        O      0.750700000000     0.875350000000     0.833333333333     0          
O        O      0.790700000000     0.958300000000     0.833866666667     0          
O        O      0.792350000000     0.707700000000     0.666666666667     0          
O        O      0.875350000000     0.750700000000     0.666666666667     0          
O        O      0.832400000000     0.790700000000     0.667200000000     0          
O        O      0.584650000000     0.792350000000     0.833333333333     0          
O        O      0.624650000000     0.875350000000     0.833333333333     0          
O        O      0.541700000000     0.832400000000     0.833866666667     0          
O        O      0.792300000000     0.584650000000     0.666666666667     0          
O        O      0.749300000000     0.624650000000     0.666666666667     0          
O        O      0.709300000000     0.541700000000     0.667200000000     0          
O        O      0.707650000000     0.792300000000     0.833333333333     0          
O        O      0.624650000000     0.749300000000     0.833333333333     0          
O        O      0.667600000000     0.709300000000     0.833866666667     0          
O        O      0.832400000000     0.541700000000     0.999466666667     0          
O        O      0.790700000000     0.832400000000     0.832800000000     0          
O        O      0.958300000000     0.790700000000     0.999466666667     0          
O        O      0.667600000000     0.958300000000     0.832800000000     0          
O        O      0.709300000000     0.667600000000     0.999466666667     0          
O        O      0.541700000000     0.709300000000     0.832800000000     0          


