data_zeolite

_audit_creation_method RASPA-1.0
_audit_creation_date 2021-6-7
_audit_author_name ''

_cell_length_a    14.013
_cell_length_b    20.027
_cell_length_c    12.488
_cell_angle_alpha 90
_cell_angle_beta  106.08
_cell_angle_gamma 90
_cell_volume      40410

_symmetry_cell_setting          monoclinic
_symmetry_space_group_name_Hall 'P 1'
_symmetry_space_group_name_H-M  'P 1'
_symmetry_Int_Tables_number     1

_symmetry_equiv_pos_as_xyz 'x,y,z'

loop_
_atom_site_label
_atom_site_type_symbol
_atom_site_fract_x
_atom_site_fract_y
_atom_site_fract_z
_atom_site_charge
T        Si     0.042050000000     0.280100000000     0.136633333333     0          
T        Si     0.146450000000     0.061150000000     0.134133333333     0          
T        Si     0.136350000000     0.061800000000     0.261066666667     0          
T        Si     0.205850000000     0.286900000000     0.217866666667     0          
T        Si     0.208450000000     0.086600000000     0.085266666667     0          
T        Si     0.224100000000     0.277350000000     0.089966666667     0          
T        Si     0.210150000000     0.086700000000     0.001666666667     0          
T        Si     0.035700000000     0.086800000000     0.216633333333     0          
T        Si     0.042600000000     0.086900000000     0.135300000000     0          
T        Si     0.136300000000     0.267100000000     0.264500000000     0          
T        Si     0.150600000000     0.266500000000     0.137333333333     0          
T        Si     0.215200000000     0.280750000000     0.004233333333     0          
T        Si     0.031950000000     0.279100000000     0.216966666667     0          
T        Si     0.203350000000     0.087400000000     0.211766666667     0          
T        Si     0.457950000000     0.030100000000     0.196700000000     0          
T        Si     0.353550000000     0.311150000000     0.199200000000     0          
T        Si     0.363650000000     0.311800000000     0.072266666667     0          
T        Si     0.294150000000     0.036900000000     0.115466666667     0          
T        Si     0.291550000000     0.336600000000     0.248066666667     0          
T        Si     0.275900000000     0.027350000000     0.243366666667     0          
T        Si     0.289850000000     0.336700000000     0.331666666667     0          
T        Si     0.464300000000     0.336800000000     0.116700000000     0          
T        Si     0.457400000000     0.336900000000     0.198033333333     0          
T        Si     0.363700000000     0.017100000000     0.068833333333     0          
T        Si     0.349400000000     0.016500000000     0.196000000000     0          
T        Si     0.284800000000     0.030750000000     0.329100000000     0          
T        Si     0.468050000000     0.029100000000     0.116366666667     0          
T        Si     0.296650000000     0.337400000000     0.121566666667     0          
T        Si     0.457950000000     0.219900000000     0.196700000000     0          
T        Si     0.353550000000     0.438850000000     0.199200000000     0          
T        Si     0.363650000000     0.438200000000     0.072266666667     0          
T        Si     0.294150000000     0.213100000000     0.115466666667     0          
T        Si     0.291550000000     0.413400000000     0.248066666667     0          
T        Si     0.275900000000     0.222650000000     0.243366666667     0          
T        Si     0.289850000000     0.413300000000     0.331666666667     0          
T        Si     0.464300000000     0.413200000000     0.116700000000     0          
T        Si     0.457400000000     0.413100000000     0.198033333333     0          
T        Si     0.363700000000     0.232900000000     0.068833333333     0          
T        Si     0.349400000000     0.233500000000     0.196000000000     0          
T        Si     0.284800000000     0.219250000000     0.329100000000     0          
T        Si     0.468050000000     0.220900000000     0.116366666667     0          
T        Si     0.296650000000     0.412600000000     0.121566666667     0          
T        Si     0.042050000000     0.469900000000     0.136633333333     0          
T        Si     0.146450000000     0.188850000000     0.134133333333     0          
T        Si     0.136350000000     0.188200000000     0.261066666667     0          
T        Si     0.205850000000     0.463100000000     0.217866666667     0          
T        Si     0.208450000000     0.163400000000     0.085266666667     0          
T        Si     0.224100000000     0.472650000000     0.089966666667     0          
T        Si     0.210150000000     0.163300000000     0.001666666667     0          
T        Si     0.035700000000     0.163200000000     0.216633333333     0          
T        Si     0.042600000000     0.163100000000     0.135300000000     0          
T        Si     0.136300000000     0.482900000000     0.264500000000     0          
T        Si     0.150600000000     0.483500000000     0.137333333333     0          
T        Si     0.215200000000     0.469250000000     0.004233333333     0          
T        Si     0.031950000000     0.470900000000     0.216966666667     0          
T        Si     0.203350000000     0.162600000000     0.211766666667     0          
T        Si     0.042050000000     0.280100000000     0.469966666667     0          
T        Si     0.146450000000     0.061150000000     0.467466666667     0          
T        Si     0.136350000000     0.061800000000     0.594400000000     0          
T        Si     0.205850000000     0.286900000000     0.551200000000     0          
T        Si     0.208450000000     0.086600000000     0.418600000000     0          
T        Si     0.224100000000     0.277350000000     0.423300000000     0          
T        Si     0.210150000000     0.086700000000     0.335000000000     0          
T        Si     0.035700000000     0.086800000000     0.549966666667     0          
T        Si     0.042600000000     0.086900000000     0.468633333333     0          
T        Si     0.136300000000     0.267100000000     0.597833333333     0          
T        Si     0.150600000000     0.266500000000     0.470666666667     0          
T        Si     0.215200000000     0.280750000000     0.337566666667     0          
T        Si     0.031950000000     0.279100000000     0.550300000000     0          
T        Si     0.203350000000     0.087400000000     0.545100000000     0          
T        Si     0.457950000000     0.030100000000     0.530033333333     0          
T        Si     0.353550000000     0.311150000000     0.532533333333     0          
T        Si     0.363650000000     0.311800000000     0.405600000000     0          
T        Si     0.294150000000     0.036900000000     0.448800000000     0          
T        Si     0.291550000000     0.336600000000     0.581400000000     0          
T        Si     0.275900000000     0.027350000000     0.576700000000     0          
T        Si     0.289850000000     0.336700000000     0.665000000000     0          
T        Si     0.464300000000     0.336800000000     0.450033333333     0          
T        Si     0.457400000000     0.336900000000     0.531366666667     0          
T        Si     0.363700000000     0.017100000000     0.402166666667     0          
T        Si     0.349400000000     0.016500000000     0.529333333333     0          
T        Si     0.284800000000     0.030750000000     0.662433333333     0          
T        Si     0.468050000000     0.029100000000     0.449700000000     0          
T        Si     0.296650000000     0.337400000000     0.454900000000     0          
T        Si     0.457950000000     0.219900000000     0.530033333333     0          
T        Si     0.353550000000     0.438850000000     0.532533333333     0          
T        Si     0.363650000000     0.438200000000     0.405600000000     0          
T        Si     0.294150000000     0.213100000000     0.448800000000     0          
T        Si     0.291550000000     0.413400000000     0.581400000000     0          
T        Si     0.275900000000     0.222650000000     0.576700000000     0          
T        Si     0.289850000000     0.413300000000     0.665000000000     0          
T        Si     0.464300000000     0.413200000000     0.450033333333     0          
T        Si     0.457400000000     0.413100000000     0.531366666667     0          
T        Si     0.363700000000     0.232900000000     0.402166666667     0          
T        Si     0.349400000000     0.233500000000     0.529333333333     0          
T        Si     0.284800000000     0.219250000000     0.662433333333     0          
T        Si     0.468050000000     0.220900000000     0.449700000000     0          
T        Si     0.296650000000     0.412600000000     0.454900000000     0          
T        Si     0.042050000000     0.469900000000     0.469966666667     0          
T        Si     0.146450000000     0.188850000000     0.467466666667     0          
T        Si     0.136350000000     0.188200000000     0.594400000000     0          
T        Si     0.205850000000     0.463100000000     0.551200000000     0          
T        Si     0.208450000000     0.163400000000     0.418600000000     0          
T        Si     0.224100000000     0.472650000000     0.423300000000     0          
T        Si     0.210150000000     0.163300000000     0.335000000000     0          
T        Si     0.035700000000     0.163200000000     0.549966666667     0          
T        Si     0.042600000000     0.163100000000     0.468633333333     0          
T        Si     0.136300000000     0.482900000000     0.597833333333     0          
T        Si     0.150600000000     0.483500000000     0.470666666667     0          
T        Si     0.215200000000     0.469250000000     0.337566666667     0          
T        Si     0.031950000000     0.470900000000     0.550300000000     0          
T        Si     0.203350000000     0.162600000000     0.545100000000     0          
T        Si     0.042050000000     0.280100000000     0.803300000000     0          
T        Si     0.146450000000     0.061150000000     0.800800000000     0          
T        Si     0.136350000000     0.061800000000     0.927733333333     0          
T        Si     0.205850000000     0.286900000000     0.884533333333     0          
T        Si     0.208450000000     0.086600000000     0.751933333333     0          
T        Si     0.224100000000     0.277350000000     0.756633333333     0          
T        Si     0.210150000000     0.086700000000     0.668333333333     0          
T        Si     0.035700000000     0.086800000000     0.883300000000     0          
T        Si     0.042600000000     0.086900000000     0.801966666667     0          
T        Si     0.136300000000     0.267100000000     0.931166666667     0          
T        Si     0.150600000000     0.266500000000     0.804000000000     0          
T        Si     0.215200000000     0.280750000000     0.670900000000     0          
T        Si     0.031950000000     0.279100000000     0.883633333333     0          
T        Si     0.203350000000     0.087400000000     0.878433333333     0          
T        Si     0.457950000000     0.030100000000     0.863366666667     0          
T        Si     0.353550000000     0.311150000000     0.865866666667     0          
T        Si     0.363650000000     0.311800000000     0.738933333333     0          
T        Si     0.294150000000     0.036900000000     0.782133333333     0          
T        Si     0.291550000000     0.336600000000     0.914733333333     0          
T        Si     0.275900000000     0.027350000000     0.910033333333     0          
T        Si     0.289850000000     0.336700000000     0.998333333333     0          
T        Si     0.464300000000     0.336800000000     0.783366666667     0          
T        Si     0.457400000000     0.336900000000     0.864700000000     0          
T        Si     0.363700000000     0.017100000000     0.735500000000     0          
T        Si     0.349400000000     0.016500000000     0.862666666667     0          
T        Si     0.284800000000     0.030750000000     0.995766666667     0          
T        Si     0.468050000000     0.029100000000     0.783033333333     0          
T        Si     0.296650000000     0.337400000000     0.788233333333     0          
T        Si     0.457950000000     0.219900000000     0.863366666667     0          
T        Si     0.353550000000     0.438850000000     0.865866666667     0          
T        Si     0.363650000000     0.438200000000     0.738933333333     0          
T        Si     0.294150000000     0.213100000000     0.782133333333     0          
T        Si     0.291550000000     0.413400000000     0.914733333333     0          
T        Si     0.275900000000     0.222650000000     0.910033333333     0          
T        Si     0.289850000000     0.413300000000     0.998333333333     0          
T        Si     0.464300000000     0.413200000000     0.783366666667     0          
T        Si     0.457400000000     0.413100000000     0.864700000000     0          
T        Si     0.363700000000     0.232900000000     0.735500000000     0          
T        Si     0.349400000000     0.233500000000     0.862666666667     0          
T        Si     0.284800000000     0.219250000000     0.995766666667     0          
T        Si     0.468050000000     0.220900000000     0.783033333333     0          
T        Si     0.296650000000     0.412600000000     0.788233333333     0          
T        Si     0.042050000000     0.469900000000     0.803300000000     0          
T        Si     0.146450000000     0.188850000000     0.800800000000     0          
T        Si     0.136350000000     0.188200000000     0.927733333333     0          
T        Si     0.205850000000     0.463100000000     0.884533333333     0          
T        Si     0.208450000000     0.163400000000     0.751933333333     0          
T        Si     0.224100000000     0.472650000000     0.756633333333     0          
T        Si     0.210150000000     0.163300000000     0.668333333333     0          
T        Si     0.035700000000     0.163200000000     0.883300000000     0          
T        Si     0.042600000000     0.163100000000     0.801966666667     0          
T        Si     0.136300000000     0.482900000000     0.931166666667     0          
T        Si     0.150600000000     0.483500000000     0.804000000000     0          
T        Si     0.215200000000     0.469250000000     0.670900000000     0          
T        Si     0.031950000000     0.470900000000     0.883633333333     0          
T        Si     0.203350000000     0.162600000000     0.878433333333     0          
T        Si     0.042050000000     0.780100000000     0.136633333333     0          
T        Si     0.146450000000     0.561150000000     0.134133333333     0          
T        Si     0.136350000000     0.561800000000     0.261066666667     0          
T        Si     0.205850000000     0.786900000000     0.217866666667     0          
T        Si     0.208450000000     0.586600000000     0.085266666667     0          
T        Si     0.224100000000     0.777350000000     0.089966666667     0          
T        Si     0.210150000000     0.586700000000     0.001666666667     0          
T        Si     0.035700000000     0.586800000000     0.216633333333     0          
T        Si     0.042600000000     0.586900000000     0.135300000000     0          
T        Si     0.136300000000     0.767100000000     0.264500000000     0          
T        Si     0.150600000000     0.766500000000     0.137333333333     0          
T        Si     0.215200000000     0.780750000000     0.004233333333     0          
T        Si     0.031950000000     0.779100000000     0.216966666667     0          
T        Si     0.203350000000     0.587400000000     0.211766666667     0          
T        Si     0.457950000000     0.530100000000     0.196700000000     0          
T        Si     0.353550000000     0.811150000000     0.199200000000     0          
T        Si     0.363650000000     0.811800000000     0.072266666667     0          
T        Si     0.294150000000     0.536900000000     0.115466666667     0          
T        Si     0.291550000000     0.836600000000     0.248066666667     0          
T        Si     0.275900000000     0.527350000000     0.243366666667     0          
T        Si     0.289850000000     0.836700000000     0.331666666667     0          
T        Si     0.464300000000     0.836800000000     0.116700000000     0          
T        Si     0.457400000000     0.836900000000     0.198033333333     0          
T        Si     0.363700000000     0.517100000000     0.068833333333     0          
T        Si     0.349400000000     0.516500000000     0.196000000000     0          
T        Si     0.284800000000     0.530750000000     0.329100000000     0          
T        Si     0.468050000000     0.529100000000     0.116366666667     0          
T        Si     0.296650000000     0.837400000000     0.121566666667     0          
T        Si     0.457950000000     0.719900000000     0.196700000000     0          
T        Si     0.353550000000     0.938850000000     0.199200000000     0          
T        Si     0.363650000000     0.938200000000     0.072266666667     0          
T        Si     0.294150000000     0.713100000000     0.115466666667     0          
T        Si     0.291550000000     0.913400000000     0.248066666667     0          
T        Si     0.275900000000     0.722650000000     0.243366666667     0          
T        Si     0.289850000000     0.913300000000     0.331666666667     0          
T        Si     0.464300000000     0.913200000000     0.116700000000     0          
T        Si     0.457400000000     0.913100000000     0.198033333333     0          
T        Si     0.363700000000     0.732900000000     0.068833333333     0          
T        Si     0.349400000000     0.733500000000     0.196000000000     0          
T        Si     0.284800000000     0.719250000000     0.329100000000     0          
T        Si     0.468050000000     0.720900000000     0.116366666667     0          
T        Si     0.296650000000     0.912600000000     0.121566666667     0          
T        Si     0.042050000000     0.969900000000     0.136633333333     0          
T        Si     0.146450000000     0.688850000000     0.134133333333     0          
T        Si     0.136350000000     0.688200000000     0.261066666667     0          
T        Si     0.205850000000     0.963100000000     0.217866666667     0          
T        Si     0.208450000000     0.663400000000     0.085266666667     0          
T        Si     0.224100000000     0.972650000000     0.089966666667     0          
T        Si     0.210150000000     0.663300000000     0.001666666667     0          
T        Si     0.035700000000     0.663200000000     0.216633333333     0          
T        Si     0.042600000000     0.663100000000     0.135300000000     0          
T        Si     0.136300000000     0.982900000000     0.264500000000     0          
T        Si     0.150600000000     0.983500000000     0.137333333333     0          
T        Si     0.215200000000     0.969250000000     0.004233333333     0          
T        Si     0.031950000000     0.970900000000     0.216966666667     0          
T        Si     0.203350000000     0.662600000000     0.211766666667     0          
T        Si     0.042050000000     0.780100000000     0.469966666667     0          
T        Si     0.146450000000     0.561150000000     0.467466666667     0          
T        Si     0.136350000000     0.561800000000     0.594400000000     0          
T        Si     0.205850000000     0.786900000000     0.551200000000     0          
T        Si     0.208450000000     0.586600000000     0.418600000000     0          
T        Si     0.224100000000     0.777350000000     0.423300000000     0          
T        Si     0.210150000000     0.586700000000     0.335000000000     0          
T        Si     0.035700000000     0.586800000000     0.549966666667     0          
T        Si     0.042600000000     0.586900000000     0.468633333333     0          
T        Si     0.136300000000     0.767100000000     0.597833333333     0          
T        Si     0.150600000000     0.766500000000     0.470666666667     0          
T        Si     0.215200000000     0.780750000000     0.337566666667     0          
T        Si     0.031950000000     0.779100000000     0.550300000000     0          
T        Si     0.203350000000     0.587400000000     0.545100000000     0          
T        Si     0.457950000000     0.530100000000     0.530033333333     0          
T        Si     0.353550000000     0.811150000000     0.532533333333     0          
T        Si     0.363650000000     0.811800000000     0.405600000000     0          
T        Si     0.294150000000     0.536900000000     0.448800000000     0          
T        Si     0.291550000000     0.836600000000     0.581400000000     0          
T        Si     0.275900000000     0.527350000000     0.576700000000     0          
T        Si     0.289850000000     0.836700000000     0.665000000000     0          
T        Si     0.464300000000     0.836800000000     0.450033333333     0          
T        Si     0.457400000000     0.836900000000     0.531366666667     0          
T        Si     0.363700000000     0.517100000000     0.402166666667     0          
T        Si     0.349400000000     0.516500000000     0.529333333333     0          
T        Si     0.284800000000     0.530750000000     0.662433333333     0          
T        Si     0.468050000000     0.529100000000     0.449700000000     0          
T        Si     0.296650000000     0.837400000000     0.454900000000     0          
T        Si     0.457950000000     0.719900000000     0.530033333333     0          
T        Si     0.353550000000     0.938850000000     0.532533333333     0          
T        Si     0.363650000000     0.938200000000     0.405600000000     0          
T        Si     0.294150000000     0.713100000000     0.448800000000     0          
T        Si     0.291550000000     0.913400000000     0.581400000000     0          
T        Si     0.275900000000     0.722650000000     0.576700000000     0          
T        Si     0.289850000000     0.913300000000     0.665000000000     0          
T        Si     0.464300000000     0.913200000000     0.450033333333     0          
T        Si     0.457400000000     0.913100000000     0.531366666667     0          
T        Si     0.363700000000     0.732900000000     0.402166666667     0          
T        Si     0.349400000000     0.733500000000     0.529333333333     0          
T        Si     0.284800000000     0.719250000000     0.662433333333     0          
T        Si     0.468050000000     0.720900000000     0.449700000000     0          
T        Si     0.296650000000     0.912600000000     0.454900000000     0          
T        Si     0.042050000000     0.969900000000     0.469966666667     0          
T        Si     0.146450000000     0.688850000000     0.467466666667     0          
T        Si     0.136350000000     0.688200000000     0.594400000000     0          
T        Si     0.205850000000     0.963100000000     0.551200000000     0          
T        Si     0.208450000000     0.663400000000     0.418600000000     0          
T        Si     0.224100000000     0.972650000000     0.423300000000     0          
T        Si     0.210150000000     0.663300000000     0.335000000000     0          
T        Si     0.035700000000     0.663200000000     0.549966666667     0          
T        Si     0.042600000000     0.663100000000     0.468633333333     0          
T        Si     0.136300000000     0.982900000000     0.597833333333     0          
T        Si     0.150600000000     0.983500000000     0.470666666667     0          
T        Si     0.215200000000     0.969250000000     0.337566666667     0          
T        Si     0.031950000000     0.970900000000     0.550300000000     0          
T        Si     0.203350000000     0.662600000000     0.545100000000     0          
T        Si     0.042050000000     0.780100000000     0.803300000000     0          
T        Si     0.146450000000     0.561150000000     0.800800000000     0          
T        Si     0.136350000000     0.561800000000     0.927733333333     0          
T        Si     0.205850000000     0.786900000000     0.884533333333     0          
T        Si     0.208450000000     0.586600000000     0.751933333333     0          
T        Si     0.224100000000     0.777350000000     0.756633333333     0          
T        Si     0.210150000000     0.586700000000     0.668333333333     0          
T        Si     0.035700000000     0.586800000000     0.883300000000     0          
T        Si     0.042600000000     0.586900000000     0.801966666667     0          
T        Si     0.136300000000     0.767100000000     0.931166666667     0          
T        Si     0.150600000000     0.766500000000     0.804000000000     0          
T        Si     0.215200000000     0.780750000000     0.670900000000     0          
T        Si     0.031950000000     0.779100000000     0.883633333333     0          
T        Si     0.203350000000     0.587400000000     0.878433333333     0          
T        Si     0.457950000000     0.530100000000     0.863366666667     0          
T        Si     0.353550000000     0.811150000000     0.865866666667     0          
T        Si     0.363650000000     0.811800000000     0.738933333333     0          
T        Si     0.294150000000     0.536900000000     0.782133333333     0          
T        Si     0.291550000000     0.836600000000     0.914733333333     0          
T        Si     0.275900000000     0.527350000000     0.910033333333     0          
T        Si     0.289850000000     0.836700000000     0.998333333333     0          
T        Si     0.464300000000     0.836800000000     0.783366666667     0          
T        Si     0.457400000000     0.836900000000     0.864700000000     0          
T        Si     0.363700000000     0.517100000000     0.735500000000     0          
T        Si     0.349400000000     0.516500000000     0.862666666667     0          
T        Si     0.284800000000     0.530750000000     0.995766666667     0          
T        Si     0.468050000000     0.529100000000     0.783033333333     0          
T        Si     0.296650000000     0.837400000000     0.788233333333     0          
T        Si     0.457950000000     0.719900000000     0.863366666667     0          
T        Si     0.353550000000     0.938850000000     0.865866666667     0          
T        Si     0.363650000000     0.938200000000     0.738933333333     0          
T        Si     0.294150000000     0.713100000000     0.782133333333     0          
T        Si     0.291550000000     0.913400000000     0.914733333333     0          
T        Si     0.275900000000     0.722650000000     0.910033333333     0          
T        Si     0.289850000000     0.913300000000     0.998333333333     0          
T        Si     0.464300000000     0.913200000000     0.783366666667     0          
T        Si     0.457400000000     0.913100000000     0.864700000000     0          
T        Si     0.363700000000     0.732900000000     0.735500000000     0          
T        Si     0.349400000000     0.733500000000     0.862666666667     0          
T        Si     0.284800000000     0.719250000000     0.995766666667     0          
T        Si     0.468050000000     0.720900000000     0.783033333333     0          
T        Si     0.296650000000     0.912600000000     0.788233333333     0          
T        Si     0.042050000000     0.969900000000     0.803300000000     0          
T        Si     0.146450000000     0.688850000000     0.800800000000     0          
T        Si     0.136350000000     0.688200000000     0.927733333333     0          
T        Si     0.205850000000     0.963100000000     0.884533333333     0          
T        Si     0.208450000000     0.663400000000     0.751933333333     0          
T        Si     0.224100000000     0.972650000000     0.756633333333     0          
T        Si     0.210150000000     0.663300000000     0.668333333333     0          
T        Si     0.035700000000     0.663200000000     0.883300000000     0          
T        Si     0.042600000000     0.663100000000     0.801966666667     0          
T        Si     0.136300000000     0.982900000000     0.931166666667     0          
T        Si     0.150600000000     0.983500000000     0.804000000000     0          
T        Si     0.215200000000     0.969250000000     0.670900000000     0          
T        Si     0.031950000000     0.970900000000     0.883633333333     0          
T        Si     0.203350000000     0.662600000000     0.878433333333     0          
T        Si     0.542050000000     0.280100000000     0.136633333333     0          
T        Si     0.646450000000     0.061150000000     0.134133333333     0          
T        Si     0.636350000000     0.061800000000     0.261066666667     0          
T        Si     0.705850000000     0.286900000000     0.217866666667     0          
T        Si     0.708450000000     0.086600000000     0.085266666667     0          
T        Si     0.724100000000     0.277350000000     0.089966666667     0          
T        Si     0.710150000000     0.086700000000     0.001666666667     0          
T        Si     0.535700000000     0.086800000000     0.216633333333     0          
T        Si     0.542600000000     0.086900000000     0.135300000000     0          
T        Si     0.636300000000     0.267100000000     0.264500000000     0          
T        Si     0.650600000000     0.266500000000     0.137333333333     0          
T        Si     0.715200000000     0.280750000000     0.004233333333     0          
T        Si     0.531950000000     0.279100000000     0.216966666667     0          
T        Si     0.703350000000     0.087400000000     0.211766666667     0          
T        Si     0.957950000000     0.030100000000     0.196700000000     0          
T        Si     0.853550000000     0.311150000000     0.199200000000     0          
T        Si     0.863650000000     0.311800000000     0.072266666667     0          
T        Si     0.794150000000     0.036900000000     0.115466666667     0          
T        Si     0.791550000000     0.336600000000     0.248066666667     0          
T        Si     0.775900000000     0.027350000000     0.243366666667     0          
T        Si     0.789850000000     0.336700000000     0.331666666667     0          
T        Si     0.964300000000     0.336800000000     0.116700000000     0          
T        Si     0.957400000000     0.336900000000     0.198033333333     0          
T        Si     0.863700000000     0.017100000000     0.068833333333     0          
T        Si     0.849400000000     0.016500000000     0.196000000000     0          
T        Si     0.784800000000     0.030750000000     0.329100000000     0          
T        Si     0.968050000000     0.029100000000     0.116366666667     0          
T        Si     0.796650000000     0.337400000000     0.121566666667     0          
T        Si     0.957950000000     0.219900000000     0.196700000000     0          
T        Si     0.853550000000     0.438850000000     0.199200000000     0          
T        Si     0.863650000000     0.438200000000     0.072266666667     0          
T        Si     0.794150000000     0.213100000000     0.115466666667     0          
T        Si     0.791550000000     0.413400000000     0.248066666667     0          
T        Si     0.775900000000     0.222650000000     0.243366666667     0          
T        Si     0.789850000000     0.413300000000     0.331666666667     0          
T        Si     0.964300000000     0.413200000000     0.116700000000     0          
T        Si     0.957400000000     0.413100000000     0.198033333333     0          
T        Si     0.863700000000     0.232900000000     0.068833333333     0          
T        Si     0.849400000000     0.233500000000     0.196000000000     0          
T        Si     0.784800000000     0.219250000000     0.329100000000     0          
T        Si     0.968050000000     0.220900000000     0.116366666667     0          
T        Si     0.796650000000     0.412600000000     0.121566666667     0          
T        Si     0.542050000000     0.469900000000     0.136633333333     0          
T        Si     0.646450000000     0.188850000000     0.134133333333     0          
T        Si     0.636350000000     0.188200000000     0.261066666667     0          
T        Si     0.705850000000     0.463100000000     0.217866666667     0          
T        Si     0.708450000000     0.163400000000     0.085266666667     0          
T        Si     0.724100000000     0.472650000000     0.089966666667     0          
T        Si     0.710150000000     0.163300000000     0.001666666667     0          
T        Si     0.535700000000     0.163200000000     0.216633333333     0          
T        Si     0.542600000000     0.163100000000     0.135300000000     0          
T        Si     0.636300000000     0.482900000000     0.264500000000     0          
T        Si     0.650600000000     0.483500000000     0.137333333333     0          
T        Si     0.715200000000     0.469250000000     0.004233333333     0          
T        Si     0.531950000000     0.470900000000     0.216966666667     0          
T        Si     0.703350000000     0.162600000000     0.211766666667     0          
T        Si     0.542050000000     0.280100000000     0.469966666667     0          
T        Si     0.646450000000     0.061150000000     0.467466666667     0          
T        Si     0.636350000000     0.061800000000     0.594400000000     0          
T        Si     0.705850000000     0.286900000000     0.551200000000     0          
T        Si     0.708450000000     0.086600000000     0.418600000000     0          
T        Si     0.724100000000     0.277350000000     0.423300000000     0          
T        Si     0.710150000000     0.086700000000     0.335000000000     0          
T        Si     0.535700000000     0.086800000000     0.549966666667     0          
T        Si     0.542600000000     0.086900000000     0.468633333333     0          
T        Si     0.636300000000     0.267100000000     0.597833333333     0          
T        Si     0.650600000000     0.266500000000     0.470666666667     0          
T        Si     0.715200000000     0.280750000000     0.337566666667     0          
T        Si     0.531950000000     0.279100000000     0.550300000000     0          
T        Si     0.703350000000     0.087400000000     0.545100000000     0          
T        Si     0.957950000000     0.030100000000     0.530033333333     0          
T        Si     0.853550000000     0.311150000000     0.532533333333     0          
T        Si     0.863650000000     0.311800000000     0.405600000000     0          
T        Si     0.794150000000     0.036900000000     0.448800000000     0          
T        Si     0.791550000000     0.336600000000     0.581400000000     0          
T        Si     0.775900000000     0.027350000000     0.576700000000     0          
T        Si     0.789850000000     0.336700000000     0.665000000000     0          
T        Si     0.964300000000     0.336800000000     0.450033333333     0          
T        Si     0.957400000000     0.336900000000     0.531366666667     0          
T        Si     0.863700000000     0.017100000000     0.402166666667     0          
T        Si     0.849400000000     0.016500000000     0.529333333333     0          
T        Si     0.784800000000     0.030750000000     0.662433333333     0          
T        Si     0.968050000000     0.029100000000     0.449700000000     0          
T        Si     0.796650000000     0.337400000000     0.454900000000     0          
T        Si     0.957950000000     0.219900000000     0.530033333333     0          
T        Si     0.853550000000     0.438850000000     0.532533333333     0          
T        Si     0.863650000000     0.438200000000     0.405600000000     0          
T        Si     0.794150000000     0.213100000000     0.448800000000     0          
T        Si     0.791550000000     0.413400000000     0.581400000000     0          
T        Si     0.775900000000     0.222650000000     0.576700000000     0          
T        Si     0.789850000000     0.413300000000     0.665000000000     0          
T        Si     0.964300000000     0.413200000000     0.450033333333     0          
T        Si     0.957400000000     0.413100000000     0.531366666667     0          
T        Si     0.863700000000     0.232900000000     0.402166666667     0          
T        Si     0.849400000000     0.233500000000     0.529333333333     0          
T        Si     0.784800000000     0.219250000000     0.662433333333     0          
T        Si     0.968050000000     0.220900000000     0.449700000000     0          
T        Si     0.796650000000     0.412600000000     0.454900000000     0          
T        Si     0.542050000000     0.469900000000     0.469966666667     0          
T        Si     0.646450000000     0.188850000000     0.467466666667     0          
T        Si     0.636350000000     0.188200000000     0.594400000000     0          
T        Si     0.705850000000     0.463100000000     0.551200000000     0          
T        Si     0.708450000000     0.163400000000     0.418600000000     0          
T        Si     0.724100000000     0.472650000000     0.423300000000     0          
T        Si     0.710150000000     0.163300000000     0.335000000000     0          
T        Si     0.535700000000     0.163200000000     0.549966666667     0          
T        Si     0.542600000000     0.163100000000     0.468633333333     0          
T        Si     0.636300000000     0.482900000000     0.597833333333     0          
T        Si     0.650600000000     0.483500000000     0.470666666667     0          
T        Si     0.715200000000     0.469250000000     0.337566666667     0          
T        Si     0.531950000000     0.470900000000     0.550300000000     0          
T        Si     0.703350000000     0.162600000000     0.545100000000     0          
T        Si     0.542050000000     0.280100000000     0.803300000000     0          
T        Si     0.646450000000     0.061150000000     0.800800000000     0          
T        Si     0.636350000000     0.061800000000     0.927733333333     0          
T        Si     0.705850000000     0.286900000000     0.884533333333     0          
T        Si     0.708450000000     0.086600000000     0.751933333333     0          
T        Si     0.724100000000     0.277350000000     0.756633333333     0          
T        Si     0.710150000000     0.086700000000     0.668333333333     0          
T        Si     0.535700000000     0.086800000000     0.883300000000     0          
T        Si     0.542600000000     0.086900000000     0.801966666667     0          
T        Si     0.636300000000     0.267100000000     0.931166666667     0          
T        Si     0.650600000000     0.266500000000     0.804000000000     0          
T        Si     0.715200000000     0.280750000000     0.670900000000     0          
T        Si     0.531950000000     0.279100000000     0.883633333333     0          
T        Si     0.703350000000     0.087400000000     0.878433333333     0          
T        Si     0.957950000000     0.030100000000     0.863366666667     0          
T        Si     0.853550000000     0.311150000000     0.865866666667     0          
T        Si     0.863650000000     0.311800000000     0.738933333333     0          
T        Si     0.794150000000     0.036900000000     0.782133333333     0          
T        Si     0.791550000000     0.336600000000     0.914733333333     0          
T        Si     0.775900000000     0.027350000000     0.910033333333     0          
T        Si     0.789850000000     0.336700000000     0.998333333333     0          
T        Si     0.964300000000     0.336800000000     0.783366666667     0          
T        Si     0.957400000000     0.336900000000     0.864700000000     0          
T        Si     0.863700000000     0.017100000000     0.735500000000     0          
T        Si     0.849400000000     0.016500000000     0.862666666667     0          
T        Si     0.784800000000     0.030750000000     0.995766666667     0          
T        Si     0.968050000000     0.029100000000     0.783033333333     0          
T        Si     0.796650000000     0.337400000000     0.788233333333     0          
T        Si     0.957950000000     0.219900000000     0.863366666667     0          
T        Si     0.853550000000     0.438850000000     0.865866666667     0          
T        Si     0.863650000000     0.438200000000     0.738933333333     0          
T        Si     0.794150000000     0.213100000000     0.782133333333     0          
T        Si     0.791550000000     0.413400000000     0.914733333333     0          
T        Si     0.775900000000     0.222650000000     0.910033333333     0          
T        Si     0.789850000000     0.413300000000     0.998333333333     0          
T        Si     0.964300000000     0.413200000000     0.783366666667     0          
T        Si     0.957400000000     0.413100000000     0.864700000000     0          
T        Si     0.863700000000     0.232900000000     0.735500000000     0          
T        Si     0.849400000000     0.233500000000     0.862666666667     0          
T        Si     0.784800000000     0.219250000000     0.995766666667     0          
T        Si     0.968050000000     0.220900000000     0.783033333333     0          
T        Si     0.796650000000     0.412600000000     0.788233333333     0          
T        Si     0.542050000000     0.469900000000     0.803300000000     0          
T        Si     0.646450000000     0.188850000000     0.800800000000     0          
T        Si     0.636350000000     0.188200000000     0.927733333333     0          
T        Si     0.705850000000     0.463100000000     0.884533333333     0          
T        Si     0.708450000000     0.163400000000     0.751933333333     0          
T        Si     0.724100000000     0.472650000000     0.756633333333     0          
T        Si     0.710150000000     0.163300000000     0.668333333333     0          
T        Si     0.535700000000     0.163200000000     0.883300000000     0          
T        Si     0.542600000000     0.163100000000     0.801966666667     0          
T        Si     0.636300000000     0.482900000000     0.931166666667     0          
T        Si     0.650600000000     0.483500000000     0.804000000000     0          
T        Si     0.715200000000     0.469250000000     0.670900000000     0          
T        Si     0.531950000000     0.470900000000     0.883633333333     0          
T        Si     0.703350000000     0.162600000000     0.878433333333     0          
T        Si     0.542050000000     0.780100000000     0.136633333333     0          
T        Si     0.646450000000     0.561150000000     0.134133333333     0          
T        Si     0.636350000000     0.561800000000     0.261066666667     0          
T        Si     0.705850000000     0.786900000000     0.217866666667     0          
T        Si     0.708450000000     0.586600000000     0.085266666667     0          
T        Si     0.724100000000     0.777350000000     0.089966666667     0          
T        Si     0.710150000000     0.586700000000     0.001666666667     0          
T        Si     0.535700000000     0.586800000000     0.216633333333     0          
T        Si     0.542600000000     0.586900000000     0.135300000000     0          
T        Si     0.636300000000     0.767100000000     0.264500000000     0          
T        Si     0.650600000000     0.766500000000     0.137333333333     0          
T        Si     0.715200000000     0.780750000000     0.004233333333     0          
T        Si     0.531950000000     0.779100000000     0.216966666667     0          
T        Si     0.703350000000     0.587400000000     0.211766666667     0          
T        Si     0.957950000000     0.530100000000     0.196700000000     0          
T        Si     0.853550000000     0.811150000000     0.199200000000     0          
T        Si     0.863650000000     0.811800000000     0.072266666667     0          
T        Si     0.794150000000     0.536900000000     0.115466666667     0          
T        Si     0.791550000000     0.836600000000     0.248066666667     0          
T        Si     0.775900000000     0.527350000000     0.243366666667     0          
T        Si     0.789850000000     0.836700000000     0.331666666667     0          
T        Si     0.964300000000     0.836800000000     0.116700000000     0          
T        Si     0.957400000000     0.836900000000     0.198033333333     0          
T        Si     0.863700000000     0.517100000000     0.068833333333     0          
T        Si     0.849400000000     0.516500000000     0.196000000000     0          
T        Si     0.784800000000     0.530750000000     0.329100000000     0          
T        Si     0.968050000000     0.529100000000     0.116366666667     0          
T        Si     0.796650000000     0.837400000000     0.121566666667     0          
T        Si     0.957950000000     0.719900000000     0.196700000000     0          
T        Si     0.853550000000     0.938850000000     0.199200000000     0          
T        Si     0.863650000000     0.938200000000     0.072266666667     0          
T        Si     0.794150000000     0.713100000000     0.115466666667     0          
T        Si     0.791550000000     0.913400000000     0.248066666667     0          
T        Si     0.775900000000     0.722650000000     0.243366666667     0          
T        Si     0.789850000000     0.913300000000     0.331666666667     0          
T        Si     0.964300000000     0.913200000000     0.116700000000     0          
T        Si     0.957400000000     0.913100000000     0.198033333333     0          
T        Si     0.863700000000     0.732900000000     0.068833333333     0          
T        Si     0.849400000000     0.733500000000     0.196000000000     0          
T        Si     0.784800000000     0.719250000000     0.329100000000     0          
T        Si     0.968050000000     0.720900000000     0.116366666667     0          
T        Si     0.796650000000     0.912600000000     0.121566666667     0          
T        Si     0.542050000000     0.969900000000     0.136633333333     0          
T        Si     0.646450000000     0.688850000000     0.134133333333     0          
T        Si     0.636350000000     0.688200000000     0.261066666667     0          
T        Si     0.705850000000     0.963100000000     0.217866666667     0          
T        Si     0.708450000000     0.663400000000     0.085266666667     0          
T        Si     0.724100000000     0.972650000000     0.089966666667     0          
T        Si     0.710150000000     0.663300000000     0.001666666667     0          
T        Si     0.535700000000     0.663200000000     0.216633333333     0          
T        Si     0.542600000000     0.663100000000     0.135300000000     0          
T        Si     0.636300000000     0.982900000000     0.264500000000     0          
T        Si     0.650600000000     0.983500000000     0.137333333333     0          
T        Si     0.715200000000     0.969250000000     0.004233333333     0          
T        Si     0.531950000000     0.970900000000     0.216966666667     0          
T        Si     0.703350000000     0.662600000000     0.211766666667     0          
T        Si     0.542050000000     0.780100000000     0.469966666667     0          
T        Si     0.646450000000     0.561150000000     0.467466666667     0          
T        Si     0.636350000000     0.561800000000     0.594400000000     0          
T        Si     0.705850000000     0.786900000000     0.551200000000     0          
T        Si     0.708450000000     0.586600000000     0.418600000000     0          
T        Si     0.724100000000     0.777350000000     0.423300000000     0          
T        Si     0.710150000000     0.586700000000     0.335000000000     0          
T        Si     0.535700000000     0.586800000000     0.549966666667     0          
T        Si     0.542600000000     0.586900000000     0.468633333333     0          
T        Si     0.636300000000     0.767100000000     0.597833333333     0          
T        Si     0.650600000000     0.766500000000     0.470666666667     0          
T        Si     0.715200000000     0.780750000000     0.337566666667     0          
T        Si     0.531950000000     0.779100000000     0.550300000000     0          
T        Si     0.703350000000     0.587400000000     0.545100000000     0          
T        Si     0.957950000000     0.530100000000     0.530033333333     0          
T        Si     0.853550000000     0.811150000000     0.532533333333     0          
T        Si     0.863650000000     0.811800000000     0.405600000000     0          
T        Si     0.794150000000     0.536900000000     0.448800000000     0          
T        Si     0.791550000000     0.836600000000     0.581400000000     0          
T        Si     0.775900000000     0.527350000000     0.576700000000     0          
T        Si     0.789850000000     0.836700000000     0.665000000000     0          
T        Si     0.964300000000     0.836800000000     0.450033333333     0          
T        Si     0.957400000000     0.836900000000     0.531366666667     0          
T        Si     0.863700000000     0.517100000000     0.402166666667     0          
T        Si     0.849400000000     0.516500000000     0.529333333333     0          
T        Si     0.784800000000     0.530750000000     0.662433333333     0          
T        Si     0.968050000000     0.529100000000     0.449700000000     0          
T        Si     0.796650000000     0.837400000000     0.454900000000     0          
T        Si     0.957950000000     0.719900000000     0.530033333333     0          
T        Si     0.853550000000     0.938850000000     0.532533333333     0          
T        Si     0.863650000000     0.938200000000     0.405600000000     0          
T        Si     0.794150000000     0.713100000000     0.448800000000     0          
T        Si     0.791550000000     0.913400000000     0.581400000000     0          
T        Si     0.775900000000     0.722650000000     0.576700000000     0          
T        Si     0.789850000000     0.913300000000     0.665000000000     0          
T        Si     0.964300000000     0.913200000000     0.450033333333     0          
T        Si     0.957400000000     0.913100000000     0.531366666667     0          
T        Si     0.863700000000     0.732900000000     0.402166666667     0          
T        Si     0.849400000000     0.733500000000     0.529333333333     0          
T        Si     0.784800000000     0.719250000000     0.662433333333     0          
T        Si     0.968050000000     0.720900000000     0.449700000000     0          
T        Si     0.796650000000     0.912600000000     0.454900000000     0          
T        Si     0.542050000000     0.969900000000     0.469966666667     0          
T        Si     0.646450000000     0.688850000000     0.467466666667     0          
T        Si     0.636350000000     0.688200000000     0.594400000000     0          
T        Si     0.705850000000     0.963100000000     0.551200000000     0          
T        Si     0.708450000000     0.663400000000     0.418600000000     0          
T        Si     0.724100000000     0.972650000000     0.423300000000     0          
T        Si     0.710150000000     0.663300000000     0.335000000000     0          
T        Si     0.535700000000     0.663200000000     0.549966666667     0          
T        Si     0.542600000000     0.663100000000     0.468633333333     0          
T        Si     0.636300000000     0.982900000000     0.597833333333     0          
T        Si     0.650600000000     0.983500000000     0.470666666667     0          
T        Si     0.715200000000     0.969250000000     0.337566666667     0          
T        Si     0.531950000000     0.970900000000     0.550300000000     0          
T        Si     0.703350000000     0.662600000000     0.545100000000     0          
T        Si     0.542050000000     0.780100000000     0.803300000000     0          
T        Si     0.646450000000     0.561150000000     0.800800000000     0          
T        Si     0.636350000000     0.561800000000     0.927733333333     0          
T        Si     0.705850000000     0.786900000000     0.884533333333     0          
T        Si     0.708450000000     0.586600000000     0.751933333333     0          
T        Si     0.724100000000     0.777350000000     0.756633333333     0          
T        Si     0.710150000000     0.586700000000     0.668333333333     0          
T        Si     0.535700000000     0.586800000000     0.883300000000     0          
T        Si     0.542600000000     0.586900000000     0.801966666667     0          
T        Si     0.636300000000     0.767100000000     0.931166666667     0          
T        Si     0.650600000000     0.766500000000     0.804000000000     0          
T        Si     0.715200000000     0.780750000000     0.670900000000     0          
T        Si     0.531950000000     0.779100000000     0.883633333333     0          
T        Si     0.703350000000     0.587400000000     0.878433333333     0          
T        Si     0.957950000000     0.530100000000     0.863366666667     0          
T        Si     0.853550000000     0.811150000000     0.865866666667     0          
T        Si     0.863650000000     0.811800000000     0.738933333333     0          
T        Si     0.794150000000     0.536900000000     0.782133333333     0          
T        Si     0.791550000000     0.836600000000     0.914733333333     0          
T        Si     0.775900000000     0.527350000000     0.910033333333     0          
T        Si     0.789850000000     0.836700000000     0.998333333333     0          
T        Si     0.964300000000     0.836800000000     0.783366666667     0          
T        Si     0.957400000000     0.836900000000     0.864700000000     0          
T        Si     0.863700000000     0.517100000000     0.735500000000     0          
T        Si     0.849400000000     0.516500000000     0.862666666667     0          
T        Si     0.784800000000     0.530750000000     0.995766666667     0          
T        Si     0.968050000000     0.529100000000     0.783033333333     0          
T        Si     0.796650000000     0.837400000000     0.788233333333     0          
T        Si     0.957950000000     0.719900000000     0.863366666667     0          
T        Si     0.853550000000     0.938850000000     0.865866666667     0          
T        Si     0.863650000000     0.938200000000     0.738933333333     0          
T        Si     0.794150000000     0.713100000000     0.782133333333     0          
T        Si     0.791550000000     0.913400000000     0.914733333333     0          
T        Si     0.775900000000     0.722650000000     0.910033333333     0          
T        Si     0.789850000000     0.913300000000     0.998333333333     0          
T        Si     0.964300000000     0.913200000000     0.783366666667     0          
T        Si     0.957400000000     0.913100000000     0.864700000000     0          
T        Si     0.863700000000     0.732900000000     0.735500000000     0          
T        Si     0.849400000000     0.733500000000     0.862666666667     0          
T        Si     0.784800000000     0.719250000000     0.995766666667     0          
T        Si     0.968050000000     0.720900000000     0.783033333333     0          
T        Si     0.796650000000     0.912600000000     0.788233333333     0          
T        Si     0.542050000000     0.969900000000     0.803300000000     0          
T        Si     0.646450000000     0.688850000000     0.800800000000     0          
T        Si     0.636350000000     0.688200000000     0.927733333333     0          
T        Si     0.705850000000     0.963100000000     0.884533333333     0          
T        Si     0.708450000000     0.663400000000     0.751933333333     0          
T        Si     0.724100000000     0.972650000000     0.756633333333     0          
T        Si     0.710150000000     0.663300000000     0.668333333333     0          
T        Si     0.535700000000     0.663200000000     0.883300000000     0          
T        Si     0.542600000000     0.663100000000     0.801966666667     0          
T        Si     0.636300000000     0.982900000000     0.931166666667     0          
T        Si     0.650600000000     0.983500000000     0.804000000000     0          
T        Si     0.715200000000     0.969250000000     0.670900000000     0          
T        Si     0.531950000000     0.970900000000     0.883633333333     0          
T        Si     0.703350000000     0.662600000000     0.878433333333     0          
O        O      0.237950000000     0.320550000000     0.228933333333     0          
O        O      0.178250000000     0.083950000000     0.167700000000     0          
O        O      0.223850000000     0.125000000000     0.220433333333     0          
O        O      0.161700000000     0.080700000000     0.233100000000     0          
O        O      0.088900000000     0.072000000000     0.123000000000     0          
O        O      0.151450000000     0.022650000000     0.147000000000     0          
O        O      0.167100000000     0.065800000000     0.098400000000     0          
O        O      0.078300000000     0.071300000000     0.250666666667     0          
O        O      0.163200000000     0.073050000000     0.303066666667     0          
O        O      0.142800000000     0.022100000000     0.257733333333     0          
O        O      0.247800000000     0.060850000000     0.225033333333     0          
O        O      0.161800000000     0.287750000000     0.237800000000     0          
O        O      0.240050000000     0.254500000000     0.231133333333     0          
O        O      0.182500000000     0.286350000000     0.173500000000     0          
O        O      0.207650000000     0.125000000000     0.097800000000     0          
O        O      0.197150000000     0.084450000000     0.040833333333     0          
O        O      0.174900000000     0.272400000000     0.103633333333     0          
O        O      0.208050000000     0.280900000000     0.045400000000     0          
O        O      0.220350000000     0.125000000000     0.326333333333     0          
O        O      0.258950000000     0.065050000000     0.003000000000     0          
O        O      0.054800000000     0.085750000000     0.179866666667     0          
O        O      0.485700000000     0.065050000000     0.209733333333     0          
O        O      0.025150000000     0.125000000000     0.225600000000     0          
O        O      0.033150000000     0.125000000000     0.121366666667     0          
O        O      0.493750000000     0.065100000000     0.116866666667     0          
O        O      0.078000000000     0.276050000000     0.253766666667     0          
O        O      0.162150000000     0.276750000000     0.307166666667     0          
O        O      0.094100000000     0.279650000000     0.126233333333     0          
O        O      0.250000000000     0.250000000000     0.000000000000     0          
O        O      0.492300000000     0.250200000000     0.217566666667     0          
O        O      0.051900000000     0.275500000000     0.180766666667     0          
O        O      0.262050000000     0.070550000000     0.104400000000     0          
O        O      0.321750000000     0.333950000000     0.165633333333     0          
O        O      0.276150000000     0.375000000000     0.112900000000     0          
O        O      0.338300000000     0.330700000000     0.100233333333     0          
O        O      0.411100000000     0.322000000000     0.210333333333     0          
O        O      0.348550000000     0.272650000000     0.186333333333     0          
O        O      0.332900000000     0.315800000000     0.234933333333     0          
O        O      0.421700000000     0.321300000000     0.082666666667     0          
O        O      0.336800000000     0.323050000000     0.030266666667     0          
O        O      0.357200000000     0.272100000000     0.075600000000     0          
O        O      0.252200000000     0.310850000000     0.108300000000     0          
O        O      0.338200000000     0.037750000000     0.095533333333     0          
O        O      0.259950000000     0.004500000000     0.102200000000     0          
O        O      0.317500000000     0.036350000000     0.159833333333     0          
O        O      0.292350000000     0.375000000000     0.235533333333     0          
O        O      0.302850000000     0.334450000000     0.292500000000     0          
O        O      0.325100000000     0.022400000000     0.229700000000     0          
O        O      0.291950000000     0.030900000000     0.287933333333     0          
O        O      0.279650000000     0.375000000000     0.007000000000     0          
O        O      0.241050000000     0.315050000000     0.330333333333     0          
O        O      0.445200000000     0.335750000000     0.153466666667     0          
O        O      0.014300000000     0.315050000000     0.123600000000     0          
O        O      0.474850000000     0.375000000000     0.107733333333     0          
O        O      0.466850000000     0.375000000000     0.211966666667     0          
O        O      0.006250000000     0.315100000000     0.216466666667     0          
O        O      0.422000000000     0.026050000000     0.079566666667     0          
O        O      0.337850000000     0.026750000000     0.026166666667     0          
O        O      0.405900000000     0.029650000000     0.207100000000     0          
O        O      0.250000000000     0.000000000000     0.000000000000     0          
O        O      0.007700000000     0.000200000000     0.115766666667     0          
O        O      0.448100000000     0.025500000000     0.152566666667     0          
O        O      0.262050000000     0.179450000000     0.104400000000     0          
O        O      0.321750000000     0.416050000000     0.165633333333     0          
O        O      0.338300000000     0.419300000000     0.100233333333     0          
O        O      0.411100000000     0.428000000000     0.210333333333     0          
O        O      0.348550000000     0.477350000000     0.186333333333     0          
O        O      0.332900000000     0.434200000000     0.234933333333     0          
O        O      0.421700000000     0.428700000000     0.082666666667     0          
O        O      0.336800000000     0.426950000000     0.030266666667     0          
O        O      0.357200000000     0.477900000000     0.075600000000     0          
O        O      0.252200000000     0.439150000000     0.108300000000     0          
O        O      0.338200000000     0.212250000000     0.095533333333     0          
O        O      0.259950000000     0.245500000000     0.102200000000     0          
O        O      0.317500000000     0.213650000000     0.159833333333     0          
O        O      0.302850000000     0.415550000000     0.292500000000     0          
O        O      0.325100000000     0.227600000000     0.229700000000     0          
O        O      0.291950000000     0.219100000000     0.287933333333     0          
O        O      0.241050000000     0.434950000000     0.330333333333     0          
O        O      0.445200000000     0.414250000000     0.153466666667     0          
O        O      0.014300000000     0.434950000000     0.123600000000     0          
O        O      0.006250000000     0.434900000000     0.216466666667     0          
O        O      0.422000000000     0.223950000000     0.079566666667     0          
O        O      0.337850000000     0.223250000000     0.026166666667     0          
O        O      0.405900000000     0.220350000000     0.207100000000     0          
O        O      0.007700000000     0.249800000000     0.115766666667     0          
O        O      0.448100000000     0.224500000000     0.152566666667     0          
O        O      0.237950000000     0.429450000000     0.228933333333     0          
O        O      0.178250000000     0.166050000000     0.167700000000     0          
O        O      0.161700000000     0.169300000000     0.233100000000     0          
O        O      0.088900000000     0.178000000000     0.123000000000     0          
O        O      0.151450000000     0.227350000000     0.147000000000     0          
O        O      0.167100000000     0.184200000000     0.098400000000     0          
O        O      0.078300000000     0.178700000000     0.250666666667     0          
O        O      0.163200000000     0.176950000000     0.303066666667     0          
O        O      0.142800000000     0.227900000000     0.257733333333     0          
O        O      0.247800000000     0.189150000000     0.225033333333     0          
O        O      0.161800000000     0.462250000000     0.237800000000     0          
O        O      0.240050000000     0.495500000000     0.231133333333     0          
O        O      0.182500000000     0.463650000000     0.173500000000     0          
O        O      0.197150000000     0.165550000000     0.040833333333     0          
O        O      0.174900000000     0.477600000000     0.103633333333     0          
O        O      0.208050000000     0.469100000000     0.045400000000     0          
O        O      0.258950000000     0.184950000000     0.003000000000     0          
O        O      0.054800000000     0.164250000000     0.179866666667     0          
O        O      0.485700000000     0.184950000000     0.209733333333     0          
O        O      0.493750000000     0.184900000000     0.116866666667     0          
O        O      0.078000000000     0.473950000000     0.253766666667     0          
O        O      0.162150000000     0.473250000000     0.307166666667     0          
O        O      0.094100000000     0.470350000000     0.126233333333     0          
O        O      0.492300000000     0.499800000000     0.217566666667     0          
O        O      0.051900000000     0.474500000000     0.180766666667     0          
O        O      0.237950000000     0.320550000000     0.562266666667     0          
O        O      0.178250000000     0.083950000000     0.501033333333     0          
O        O      0.223850000000     0.125000000000     0.553766666667     0          
O        O      0.161700000000     0.080700000000     0.566433333333     0          
O        O      0.088900000000     0.072000000000     0.456333333333     0          
O        O      0.151450000000     0.022650000000     0.480333333333     0          
O        O      0.167100000000     0.065800000000     0.431733333333     0          
O        O      0.078300000000     0.071300000000     0.584000000000     0          
O        O      0.163200000000     0.073050000000     0.636400000000     0          
O        O      0.142800000000     0.022100000000     0.591066666667     0          
O        O      0.247800000000     0.060850000000     0.558366666667     0          
O        O      0.161800000000     0.287750000000     0.571133333333     0          
O        O      0.240050000000     0.254500000000     0.564466666667     0          
O        O      0.182500000000     0.286350000000     0.506833333333     0          
O        O      0.207650000000     0.125000000000     0.431133333333     0          
O        O      0.197150000000     0.084450000000     0.374166666667     0          
O        O      0.174900000000     0.272400000000     0.436966666667     0          
O        O      0.208050000000     0.280900000000     0.378733333333     0          
O        O      0.220350000000     0.125000000000     0.659666666667     0          
O        O      0.258950000000     0.065050000000     0.336333333333     0          
O        O      0.054800000000     0.085750000000     0.513200000000     0          
O        O      0.485700000000     0.065050000000     0.543066666667     0          
O        O      0.025150000000     0.125000000000     0.558933333333     0          
O        O      0.033150000000     0.125000000000     0.454700000000     0          
O        O      0.493750000000     0.065100000000     0.450200000000     0          
O        O      0.078000000000     0.276050000000     0.587100000000     0          
O        O      0.162150000000     0.276750000000     0.640500000000     0          
O        O      0.094100000000     0.279650000000     0.459566666667     0          
O        O      0.250000000000     0.250000000000     0.333333333333     0          
O        O      0.492300000000     0.250200000000     0.550900000000     0          
O        O      0.051900000000     0.275500000000     0.514100000000     0          
O        O      0.262050000000     0.070550000000     0.437733333333     0          
O        O      0.321750000000     0.333950000000     0.498966666667     0          
O        O      0.276150000000     0.375000000000     0.446233333333     0          
O        O      0.338300000000     0.330700000000     0.433566666667     0          
O        O      0.411100000000     0.322000000000     0.543666666667     0          
O        O      0.348550000000     0.272650000000     0.519666666667     0          
O        O      0.332900000000     0.315800000000     0.568266666667     0          
O        O      0.421700000000     0.321300000000     0.416000000000     0          
O        O      0.336800000000     0.323050000000     0.363600000000     0          
O        O      0.357200000000     0.272100000000     0.408933333333     0          
O        O      0.252200000000     0.310850000000     0.441633333333     0          
O        O      0.338200000000     0.037750000000     0.428866666667     0          
O        O      0.259950000000     0.004500000000     0.435533333333     0          
O        O      0.317500000000     0.036350000000     0.493166666667     0          
O        O      0.292350000000     0.375000000000     0.568866666667     0          
O        O      0.302850000000     0.334450000000     0.625833333333     0          
O        O      0.325100000000     0.022400000000     0.563033333333     0          
O        O      0.291950000000     0.030900000000     0.621266666667     0          
O        O      0.279650000000     0.375000000000     0.340333333333     0          
O        O      0.241050000000     0.315050000000     0.663666666667     0          
O        O      0.445200000000     0.335750000000     0.486800000000     0          
O        O      0.014300000000     0.315050000000     0.456933333333     0          
O        O      0.474850000000     0.375000000000     0.441066666667     0          
O        O      0.466850000000     0.375000000000     0.545300000000     0          
O        O      0.006250000000     0.315100000000     0.549800000000     0          
O        O      0.422000000000     0.026050000000     0.412900000000     0          
O        O      0.337850000000     0.026750000000     0.359500000000     0          
O        O      0.405900000000     0.029650000000     0.540433333333     0          
O        O      0.250000000000     0.000000000000     0.333333333333     0          
O        O      0.007700000000     0.000200000000     0.449100000000     0          
O        O      0.448100000000     0.025500000000     0.485900000000     0          
O        O      0.262050000000     0.179450000000     0.437733333333     0          
O        O      0.321750000000     0.416050000000     0.498966666667     0          
O        O      0.338300000000     0.419300000000     0.433566666667     0          
O        O      0.411100000000     0.428000000000     0.543666666667     0          
O        O      0.348550000000     0.477350000000     0.519666666667     0          
O        O      0.332900000000     0.434200000000     0.568266666667     0          
O        O      0.421700000000     0.428700000000     0.416000000000     0          
O        O      0.336800000000     0.426950000000     0.363600000000     0          
O        O      0.357200000000     0.477900000000     0.408933333333     0          
O        O      0.252200000000     0.439150000000     0.441633333333     0          
O        O      0.338200000000     0.212250000000     0.428866666667     0          
O        O      0.259950000000     0.245500000000     0.435533333333     0          
O        O      0.317500000000     0.213650000000     0.493166666667     0          
O        O      0.302850000000     0.415550000000     0.625833333333     0          
O        O      0.325100000000     0.227600000000     0.563033333333     0          
O        O      0.291950000000     0.219100000000     0.621266666667     0          
O        O      0.241050000000     0.434950000000     0.663666666667     0          
O        O      0.445200000000     0.414250000000     0.486800000000     0          
O        O      0.014300000000     0.434950000000     0.456933333333     0          
O        O      0.006250000000     0.434900000000     0.549800000000     0          
O        O      0.422000000000     0.223950000000     0.412900000000     0          
O        O      0.337850000000     0.223250000000     0.359500000000     0          
O        O      0.405900000000     0.220350000000     0.540433333333     0          
O        O      0.007700000000     0.249800000000     0.449100000000     0          
O        O      0.448100000000     0.224500000000     0.485900000000     0          
O        O      0.237950000000     0.429450000000     0.562266666667     0          
O        O      0.178250000000     0.166050000000     0.501033333333     0          
O        O      0.161700000000     0.169300000000     0.566433333333     0          
O        O      0.088900000000     0.178000000000     0.456333333333     0          
O        O      0.151450000000     0.227350000000     0.480333333333     0          
O        O      0.167100000000     0.184200000000     0.431733333333     0          
O        O      0.078300000000     0.178700000000     0.584000000000     0          
O        O      0.163200000000     0.176950000000     0.636400000000     0          
O        O      0.142800000000     0.227900000000     0.591066666667     0          
O        O      0.247800000000     0.189150000000     0.558366666667     0          
O        O      0.161800000000     0.462250000000     0.571133333333     0          
O        O      0.240050000000     0.495500000000     0.564466666667     0          
O        O      0.182500000000     0.463650000000     0.506833333333     0          
O        O      0.197150000000     0.165550000000     0.374166666667     0          
O        O      0.174900000000     0.477600000000     0.436966666667     0          
O        O      0.208050000000     0.469100000000     0.378733333333     0          
O        O      0.258950000000     0.184950000000     0.336333333333     0          
O        O      0.054800000000     0.164250000000     0.513200000000     0          
O        O      0.485700000000     0.184950000000     0.543066666667     0          
O        O      0.493750000000     0.184900000000     0.450200000000     0          
O        O      0.078000000000     0.473950000000     0.587100000000     0          
O        O      0.162150000000     0.473250000000     0.640500000000     0          
O        O      0.094100000000     0.470350000000     0.459566666667     0          
O        O      0.492300000000     0.499800000000     0.550900000000     0          
O        O      0.051900000000     0.474500000000     0.514100000000     0          
O        O      0.237950000000     0.320550000000     0.895600000000     0          
O        O      0.178250000000     0.083950000000     0.834366666667     0          
O        O      0.223850000000     0.125000000000     0.887100000000     0          
O        O      0.161700000000     0.080700000000     0.899766666667     0          
O        O      0.088900000000     0.072000000000     0.789666666667     0          
O        O      0.151450000000     0.022650000000     0.813666666667     0          
O        O      0.167100000000     0.065800000000     0.765066666667     0          
O        O      0.078300000000     0.071300000000     0.917333333333     0          
O        O      0.163200000000     0.073050000000     0.969733333333     0          
O        O      0.142800000000     0.022100000000     0.924400000000     0          
O        O      0.247800000000     0.060850000000     0.891700000000     0          
O        O      0.161800000000     0.287750000000     0.904466666667     0          
O        O      0.240050000000     0.254500000000     0.897800000000     0          
O        O      0.182500000000     0.286350000000     0.840166666667     0          
O        O      0.207650000000     0.125000000000     0.764466666667     0          
O        O      0.197150000000     0.084450000000     0.707500000000     0          
O        O      0.174900000000     0.272400000000     0.770300000000     0          
O        O      0.208050000000     0.280900000000     0.712066666667     0          
O        O      0.220350000000     0.125000000000     0.993000000000     0          
O        O      0.258950000000     0.065050000000     0.669666666667     0          
O        O      0.054800000000     0.085750000000     0.846533333333     0          
O        O      0.485700000000     0.065050000000     0.876400000000     0          
O        O      0.025150000000     0.125000000000     0.892266666667     0          
O        O      0.033150000000     0.125000000000     0.788033333333     0          
O        O      0.493750000000     0.065100000000     0.783533333333     0          
O        O      0.078000000000     0.276050000000     0.920433333333     0          
O        O      0.162150000000     0.276750000000     0.973833333333     0          
O        O      0.094100000000     0.279650000000     0.792900000000     0          
O        O      0.250000000000     0.250000000000     0.666666666667     0          
O        O      0.492300000000     0.250200000000     0.884233333333     0          
O        O      0.051900000000     0.275500000000     0.847433333333     0          
O        O      0.262050000000     0.070550000000     0.771066666667     0          
O        O      0.321750000000     0.333950000000     0.832300000000     0          
O        O      0.276150000000     0.375000000000     0.779566666667     0          
O        O      0.338300000000     0.330700000000     0.766900000000     0          
O        O      0.411100000000     0.322000000000     0.877000000000     0          
O        O      0.348550000000     0.272650000000     0.853000000000     0          
O        O      0.332900000000     0.315800000000     0.901600000000     0          
O        O      0.421700000000     0.321300000000     0.749333333333     0          
O        O      0.336800000000     0.323050000000     0.696933333333     0          
O        O      0.357200000000     0.272100000000     0.742266666667     0          
O        O      0.252200000000     0.310850000000     0.774966666667     0          
O        O      0.338200000000     0.037750000000     0.762200000000     0          
O        O      0.259950000000     0.004500000000     0.768866666667     0          
O        O      0.317500000000     0.036350000000     0.826500000000     0          
O        O      0.292350000000     0.375000000000     0.902200000000     0          
O        O      0.302850000000     0.334450000000     0.959166666667     0          
O        O      0.325100000000     0.022400000000     0.896366666667     0          
O        O      0.291950000000     0.030900000000     0.954600000000     0          
O        O      0.279650000000     0.375000000000     0.673666666667     0          
O        O      0.241050000000     0.315050000000     0.997000000000     0          
O        O      0.445200000000     0.335750000000     0.820133333333     0          
O        O      0.014300000000     0.315050000000     0.790266666667     0          
O        O      0.474850000000     0.375000000000     0.774400000000     0          
O        O      0.466850000000     0.375000000000     0.878633333333     0          
O        O      0.006250000000     0.315100000000     0.883133333333     0          
O        O      0.422000000000     0.026050000000     0.746233333333     0          
O        O      0.337850000000     0.026750000000     0.692833333333     0          
O        O      0.405900000000     0.029650000000     0.873766666667     0          
O        O      0.250000000000     0.000000000000     0.666666666667     0          
O        O      0.007700000000     0.000200000000     0.782433333333     0          
O        O      0.448100000000     0.025500000000     0.819233333333     0          
O        O      0.262050000000     0.179450000000     0.771066666667     0          
O        O      0.321750000000     0.416050000000     0.832300000000     0          
O        O      0.338300000000     0.419300000000     0.766900000000     0          
O        O      0.411100000000     0.428000000000     0.877000000000     0          
O        O      0.348550000000     0.477350000000     0.853000000000     0          
O        O      0.332900000000     0.434200000000     0.901600000000     0          
O        O      0.421700000000     0.428700000000     0.749333333333     0          
O        O      0.336800000000     0.426950000000     0.696933333333     0          
O        O      0.357200000000     0.477900000000     0.742266666667     0          
O        O      0.252200000000     0.439150000000     0.774966666667     0          
O        O      0.338200000000     0.212250000000     0.762200000000     0          
O        O      0.259950000000     0.245500000000     0.768866666667     0          
O        O      0.317500000000     0.213650000000     0.826500000000     0          
O        O      0.302850000000     0.415550000000     0.959166666667     0          
O        O      0.325100000000     0.227600000000     0.896366666667     0          
O        O      0.291950000000     0.219100000000     0.954600000000     0          
O        O      0.241050000000     0.434950000000     0.997000000000     0          
O        O      0.445200000000     0.414250000000     0.820133333333     0          
O        O      0.014300000000     0.434950000000     0.790266666667     0          
O        O      0.006250000000     0.434900000000     0.883133333333     0          
O        O      0.422000000000     0.223950000000     0.746233333333     0          
O        O      0.337850000000     0.223250000000     0.692833333333     0          
O        O      0.405900000000     0.220350000000     0.873766666667     0          
O        O      0.007700000000     0.249800000000     0.782433333333     0          
O        O      0.448100000000     0.224500000000     0.819233333333     0          
O        O      0.237950000000     0.429450000000     0.895600000000     0          
O        O      0.178250000000     0.166050000000     0.834366666667     0          
O        O      0.161700000000     0.169300000000     0.899766666667     0          
O        O      0.088900000000     0.178000000000     0.789666666667     0          
O        O      0.151450000000     0.227350000000     0.813666666667     0          
O        O      0.167100000000     0.184200000000     0.765066666667     0          
O        O      0.078300000000     0.178700000000     0.917333333333     0          
O        O      0.163200000000     0.176950000000     0.969733333333     0          
O        O      0.142800000000     0.227900000000     0.924400000000     0          
O        O      0.247800000000     0.189150000000     0.891700000000     0          
O        O      0.161800000000     0.462250000000     0.904466666667     0          
O        O      0.240050000000     0.495500000000     0.897800000000     0          
O        O      0.182500000000     0.463650000000     0.840166666667     0          
O        O      0.197150000000     0.165550000000     0.707500000000     0          
O        O      0.174900000000     0.477600000000     0.770300000000     0          
O        O      0.208050000000     0.469100000000     0.712066666667     0          
O        O      0.258950000000     0.184950000000     0.669666666667     0          
O        O      0.054800000000     0.164250000000     0.846533333333     0          
O        O      0.485700000000     0.184950000000     0.876400000000     0          
O        O      0.493750000000     0.184900000000     0.783533333333     0          
O        O      0.078000000000     0.473950000000     0.920433333333     0          
O        O      0.162150000000     0.473250000000     0.973833333333     0          
O        O      0.094100000000     0.470350000000     0.792900000000     0          
O        O      0.492300000000     0.499800000000     0.884233333333     0          
O        O      0.051900000000     0.474500000000     0.847433333333     0          
O        O      0.237950000000     0.820550000000     0.228933333333     0          
O        O      0.178250000000     0.583950000000     0.167700000000     0          
O        O      0.223850000000     0.625000000000     0.220433333333     0          
O        O      0.161700000000     0.580700000000     0.233100000000     0          
O        O      0.088900000000     0.572000000000     0.123000000000     0          
O        O      0.151450000000     0.522650000000     0.147000000000     0          
O        O      0.167100000000     0.565800000000     0.098400000000     0          
O        O      0.078300000000     0.571300000000     0.250666666667     0          
O        O      0.163200000000     0.573050000000     0.303066666667     0          
O        O      0.142800000000     0.522100000000     0.257733333333     0          
O        O      0.247800000000     0.560850000000     0.225033333333     0          
O        O      0.161800000000     0.787750000000     0.237800000000     0          
O        O      0.240050000000     0.754500000000     0.231133333333     0          
O        O      0.182500000000     0.786350000000     0.173500000000     0          
O        O      0.207650000000     0.625000000000     0.097800000000     0          
O        O      0.197150000000     0.584450000000     0.040833333333     0          
O        O      0.174900000000     0.772400000000     0.103633333333     0          
O        O      0.208050000000     0.780900000000     0.045400000000     0          
O        O      0.220350000000     0.625000000000     0.326333333333     0          
O        O      0.258950000000     0.565050000000     0.003000000000     0          
O        O      0.054800000000     0.585750000000     0.179866666667     0          
O        O      0.485700000000     0.565050000000     0.209733333333     0          
O        O      0.025150000000     0.625000000000     0.225600000000     0          
O        O      0.033150000000     0.625000000000     0.121366666667     0          
O        O      0.493750000000     0.565100000000     0.116866666667     0          
O        O      0.078000000000     0.776050000000     0.253766666667     0          
O        O      0.162150000000     0.776750000000     0.307166666667     0          
O        O      0.094100000000     0.779650000000     0.126233333333     0          
O        O      0.250000000000     0.750000000000     0.000000000000     0          
O        O      0.492300000000     0.750200000000     0.217566666667     0          
O        O      0.051900000000     0.775500000000     0.180766666667     0          
O        O      0.262050000000     0.570550000000     0.104400000000     0          
O        O      0.321750000000     0.833950000000     0.165633333333     0          
O        O      0.276150000000     0.875000000000     0.112900000000     0          
O        O      0.338300000000     0.830700000000     0.100233333333     0          
O        O      0.411100000000     0.822000000000     0.210333333333     0          
O        O      0.348550000000     0.772650000000     0.186333333333     0          
O        O      0.332900000000     0.815800000000     0.234933333333     0          
O        O      0.421700000000     0.821300000000     0.082666666667     0          
O        O      0.336800000000     0.823050000000     0.030266666667     0          
O        O      0.357200000000     0.772100000000     0.075600000000     0          
O        O      0.252200000000     0.810850000000     0.108300000000     0          
O        O      0.338200000000     0.537750000000     0.095533333333     0          
O        O      0.259950000000     0.504500000000     0.102200000000     0          
O        O      0.317500000000     0.536350000000     0.159833333333     0          
O        O      0.292350000000     0.875000000000     0.235533333333     0          
O        O      0.302850000000     0.834450000000     0.292500000000     0          
O        O      0.325100000000     0.522400000000     0.229700000000     0          
O        O      0.291950000000     0.530900000000     0.287933333333     0          
O        O      0.279650000000     0.875000000000     0.007000000000     0          
O        O      0.241050000000     0.815050000000     0.330333333333     0          
O        O      0.445200000000     0.835750000000     0.153466666667     0          
O        O      0.014300000000     0.815050000000     0.123600000000     0          
O        O      0.474850000000     0.875000000000     0.107733333333     0          
O        O      0.466850000000     0.875000000000     0.211966666667     0          
O        O      0.006250000000     0.815100000000     0.216466666667     0          
O        O      0.422000000000     0.526050000000     0.079566666667     0          
O        O      0.337850000000     0.526750000000     0.026166666667     0          
O        O      0.405900000000     0.529650000000     0.207100000000     0          
O        O      0.250000000000     0.500000000000     0.000000000000     0          
O        O      0.007700000000     0.500200000000     0.115766666667     0          
O        O      0.448100000000     0.525500000000     0.152566666667     0          
O        O      0.262050000000     0.679450000000     0.104400000000     0          
O        O      0.321750000000     0.916050000000     0.165633333333     0          
O        O      0.338300000000     0.919300000000     0.100233333333     0          
O        O      0.411100000000     0.928000000000     0.210333333333     0          
O        O      0.348550000000     0.977350000000     0.186333333333     0          
O        O      0.332900000000     0.934200000000     0.234933333333     0          
O        O      0.421700000000     0.928700000000     0.082666666667     0          
O        O      0.336800000000     0.926950000000     0.030266666667     0          
O        O      0.357200000000     0.977900000000     0.075600000000     0          
O        O      0.252200000000     0.939150000000     0.108300000000     0          
O        O      0.338200000000     0.712250000000     0.095533333333     0          
O        O      0.259950000000     0.745500000000     0.102200000000     0          
O        O      0.317500000000     0.713650000000     0.159833333333     0          
O        O      0.302850000000     0.915550000000     0.292500000000     0          
O        O      0.325100000000     0.727600000000     0.229700000000     0          
O        O      0.291950000000     0.719100000000     0.287933333333     0          
O        O      0.241050000000     0.934950000000     0.330333333333     0          
O        O      0.445200000000     0.914250000000     0.153466666667     0          
O        O      0.014300000000     0.934950000000     0.123600000000     0          
O        O      0.006250000000     0.934900000000     0.216466666667     0          
O        O      0.422000000000     0.723950000000     0.079566666667     0          
O        O      0.337850000000     0.723250000000     0.026166666667     0          
O        O      0.405900000000     0.720350000000     0.207100000000     0          
O        O      0.007700000000     0.749800000000     0.115766666667     0          
O        O      0.448100000000     0.724500000000     0.152566666667     0          
O        O      0.237950000000     0.929450000000     0.228933333333     0          
O        O      0.178250000000     0.666050000000     0.167700000000     0          
O        O      0.161700000000     0.669300000000     0.233100000000     0          
O        O      0.088900000000     0.678000000000     0.123000000000     0          
O        O      0.151450000000     0.727350000000     0.147000000000     0          
O        O      0.167100000000     0.684200000000     0.098400000000     0          
O        O      0.078300000000     0.678700000000     0.250666666667     0          
O        O      0.163200000000     0.676950000000     0.303066666667     0          
O        O      0.142800000000     0.727900000000     0.257733333333     0          
O        O      0.247800000000     0.689150000000     0.225033333333     0          
O        O      0.161800000000     0.962250000000     0.237800000000     0          
O        O      0.240050000000     0.995500000000     0.231133333333     0          
O        O      0.182500000000     0.963650000000     0.173500000000     0          
O        O      0.197150000000     0.665550000000     0.040833333333     0          
O        O      0.174900000000     0.977600000000     0.103633333333     0          
O        O      0.208050000000     0.969100000000     0.045400000000     0          
O        O      0.258950000000     0.684950000000     0.003000000000     0          
O        O      0.054800000000     0.664250000000     0.179866666667     0          
O        O      0.485700000000     0.684950000000     0.209733333333     0          
O        O      0.493750000000     0.684900000000     0.116866666667     0          
O        O      0.078000000000     0.973950000000     0.253766666667     0          
O        O      0.162150000000     0.973250000000     0.307166666667     0          
O        O      0.094100000000     0.970350000000     0.126233333333     0          
O        O      0.492300000000     0.999800000000     0.217566666667     0          
O        O      0.051900000000     0.974500000000     0.180766666667     0          
O        O      0.237950000000     0.820550000000     0.562266666667     0          
O        O      0.178250000000     0.583950000000     0.501033333333     0          
O        O      0.223850000000     0.625000000000     0.553766666667     0          
O        O      0.161700000000     0.580700000000     0.566433333333     0          
O        O      0.088900000000     0.572000000000     0.456333333333     0          
O        O      0.151450000000     0.522650000000     0.480333333333     0          
O        O      0.167100000000     0.565800000000     0.431733333333     0          
O        O      0.078300000000     0.571300000000     0.584000000000     0          
O        O      0.163200000000     0.573050000000     0.636400000000     0          
O        O      0.142800000000     0.522100000000     0.591066666667     0          
O        O      0.247800000000     0.560850000000     0.558366666667     0          
O        O      0.161800000000     0.787750000000     0.571133333333     0          
O        O      0.240050000000     0.754500000000     0.564466666667     0          
O        O      0.182500000000     0.786350000000     0.506833333333     0          
O        O      0.207650000000     0.625000000000     0.431133333333     0          
O        O      0.197150000000     0.584450000000     0.374166666667     0          
O        O      0.174900000000     0.772400000000     0.436966666667     0          
O        O      0.208050000000     0.780900000000     0.378733333333     0          
O        O      0.220350000000     0.625000000000     0.659666666667     0          
O        O      0.258950000000     0.565050000000     0.336333333333     0          
O        O      0.054800000000     0.585750000000     0.513200000000     0          
O        O      0.485700000000     0.565050000000     0.543066666667     0          
O        O      0.025150000000     0.625000000000     0.558933333333     0          
O        O      0.033150000000     0.625000000000     0.454700000000     0          
O        O      0.493750000000     0.565100000000     0.450200000000     0          
O        O      0.078000000000     0.776050000000     0.587100000000     0          
O        O      0.162150000000     0.776750000000     0.640500000000     0          
O        O      0.094100000000     0.779650000000     0.459566666667     0          
O        O      0.250000000000     0.750000000000     0.333333333333     0          
O        O      0.492300000000     0.750200000000     0.550900000000     0          
O        O      0.051900000000     0.775500000000     0.514100000000     0          
O        O      0.262050000000     0.570550000000     0.437733333333     0          
O        O      0.321750000000     0.833950000000     0.498966666667     0          
O        O      0.276150000000     0.875000000000     0.446233333333     0          
O        O      0.338300000000     0.830700000000     0.433566666667     0          
O        O      0.411100000000     0.822000000000     0.543666666667     0          
O        O      0.348550000000     0.772650000000     0.519666666667     0          
O        O      0.332900000000     0.815800000000     0.568266666667     0          
O        O      0.421700000000     0.821300000000     0.416000000000     0          
O        O      0.336800000000     0.823050000000     0.363600000000     0          
O        O      0.357200000000     0.772100000000     0.408933333333     0          
O        O      0.252200000000     0.810850000000     0.441633333333     0          
O        O      0.338200000000     0.537750000000     0.428866666667     0          
O        O      0.259950000000     0.504500000000     0.435533333333     0          
O        O      0.317500000000     0.536350000000     0.493166666667     0          
O        O      0.292350000000     0.875000000000     0.568866666667     0          
O        O      0.302850000000     0.834450000000     0.625833333333     0          
O        O      0.325100000000     0.522400000000     0.563033333333     0          
O        O      0.291950000000     0.530900000000     0.621266666667     0          
O        O      0.279650000000     0.875000000000     0.340333333333     0          
O        O      0.241050000000     0.815050000000     0.663666666667     0          
O        O      0.445200000000     0.835750000000     0.486800000000     0          
O        O      0.014300000000     0.815050000000     0.456933333333     0          
O        O      0.474850000000     0.875000000000     0.441066666667     0          
O        O      0.466850000000     0.875000000000     0.545300000000     0          
O        O      0.006250000000     0.815100000000     0.549800000000     0          
O        O      0.422000000000     0.526050000000     0.412900000000     0          
O        O      0.337850000000     0.526750000000     0.359500000000     0          
O        O      0.405900000000     0.529650000000     0.540433333333     0          
O        O      0.250000000000     0.500000000000     0.333333333333     0          
O        O      0.007700000000     0.500200000000     0.449100000000     0          
O        O      0.448100000000     0.525500000000     0.485900000000     0          
O        O      0.262050000000     0.679450000000     0.437733333333     0          
O        O      0.321750000000     0.916050000000     0.498966666667     0          
O        O      0.338300000000     0.919300000000     0.433566666667     0          
O        O      0.411100000000     0.928000000000     0.543666666667     0          
O        O      0.348550000000     0.977350000000     0.519666666667     0          
O        O      0.332900000000     0.934200000000     0.568266666667     0          
O        O      0.421700000000     0.928700000000     0.416000000000     0          
O        O      0.336800000000     0.926950000000     0.363600000000     0          
O        O      0.357200000000     0.977900000000     0.408933333333     0          
O        O      0.252200000000     0.939150000000     0.441633333333     0          
O        O      0.338200000000     0.712250000000     0.428866666667     0          
O        O      0.259950000000     0.745500000000     0.435533333333     0          
O        O      0.317500000000     0.713650000000     0.493166666667     0          
O        O      0.302850000000     0.915550000000     0.625833333333     0          
O        O      0.325100000000     0.727600000000     0.563033333333     0          
O        O      0.291950000000     0.719100000000     0.621266666667     0          
O        O      0.241050000000     0.934950000000     0.663666666667     0          
O        O      0.445200000000     0.914250000000     0.486800000000     0          
O        O      0.014300000000     0.934950000000     0.456933333333     0          
O        O      0.006250000000     0.934900000000     0.549800000000     0          
O        O      0.422000000000     0.723950000000     0.412900000000     0          
O        O      0.337850000000     0.723250000000     0.359500000000     0          
O        O      0.405900000000     0.720350000000     0.540433333333     0          
O        O      0.007700000000     0.749800000000     0.449100000000     0          
O        O      0.448100000000     0.724500000000     0.485900000000     0          
O        O      0.237950000000     0.929450000000     0.562266666667     0          
O        O      0.178250000000     0.666050000000     0.501033333333     0          
O        O      0.161700000000     0.669300000000     0.566433333333     0          
O        O      0.088900000000     0.678000000000     0.456333333333     0          
O        O      0.151450000000     0.727350000000     0.480333333333     0          
O        O      0.167100000000     0.684200000000     0.431733333333     0          
O        O      0.078300000000     0.678700000000     0.584000000000     0          
O        O      0.163200000000     0.676950000000     0.636400000000     0          
O        O      0.142800000000     0.727900000000     0.591066666667     0          
O        O      0.247800000000     0.689150000000     0.558366666667     0          
O        O      0.161800000000     0.962250000000     0.571133333333     0          
O        O      0.240050000000     0.995500000000     0.564466666667     0          
O        O      0.182500000000     0.963650000000     0.506833333333     0          
O        O      0.197150000000     0.665550000000     0.374166666667     0          
O        O      0.174900000000     0.977600000000     0.436966666667     0          
O        O      0.208050000000     0.969100000000     0.378733333333     0          
O        O      0.258950000000     0.684950000000     0.336333333333     0          
O        O      0.054800000000     0.664250000000     0.513200000000     0          
O        O      0.485700000000     0.684950000000     0.543066666667     0          
O        O      0.493750000000     0.684900000000     0.450200000000     0          
O        O      0.078000000000     0.973950000000     0.587100000000     0          
O        O      0.162150000000     0.973250000000     0.640500000000     0          
O        O      0.094100000000     0.970350000000     0.459566666667     0          
O        O      0.492300000000     0.999800000000     0.550900000000     0          
O        O      0.051900000000     0.974500000000     0.514100000000     0          
O        O      0.237950000000     0.820550000000     0.895600000000     0          
O        O      0.178250000000     0.583950000000     0.834366666667     0          
O        O      0.223850000000     0.625000000000     0.887100000000     0          
O        O      0.161700000000     0.580700000000     0.899766666667     0          
O        O      0.088900000000     0.572000000000     0.789666666667     0          
O        O      0.151450000000     0.522650000000     0.813666666667     0          
O        O      0.167100000000     0.565800000000     0.765066666667     0          
O        O      0.078300000000     0.571300000000     0.917333333333     0          
O        O      0.163200000000     0.573050000000     0.969733333333     0          
O        O      0.142800000000     0.522100000000     0.924400000000     0          
O        O      0.247800000000     0.560850000000     0.891700000000     0          
O        O      0.161800000000     0.787750000000     0.904466666667     0          
O        O      0.240050000000     0.754500000000     0.897800000000     0          
O        O      0.182500000000     0.786350000000     0.840166666667     0          
O        O      0.207650000000     0.625000000000     0.764466666667     0          
O        O      0.197150000000     0.584450000000     0.707500000000     0          
O        O      0.174900000000     0.772400000000     0.770300000000     0          
O        O      0.208050000000     0.780900000000     0.712066666667     0          
O        O      0.220350000000     0.625000000000     0.993000000000     0          
O        O      0.258950000000     0.565050000000     0.669666666667     0          
O        O      0.054800000000     0.585750000000     0.846533333333     0          
O        O      0.485700000000     0.565050000000     0.876400000000     0          
O        O      0.025150000000     0.625000000000     0.892266666667     0          
O        O      0.033150000000     0.625000000000     0.788033333333     0          
O        O      0.493750000000     0.565100000000     0.783533333333     0          
O        O      0.078000000000     0.776050000000     0.920433333333     0          
O        O      0.162150000000     0.776750000000     0.973833333333     0          
O        O      0.094100000000     0.779650000000     0.792900000000     0          
O        O      0.250000000000     0.750000000000     0.666666666667     0          
O        O      0.492300000000     0.750200000000     0.884233333333     0          
O        O      0.051900000000     0.775500000000     0.847433333333     0          
O        O      0.262050000000     0.570550000000     0.771066666667     0          
O        O      0.321750000000     0.833950000000     0.832300000000     0          
O        O      0.276150000000     0.875000000000     0.779566666667     0          
O        O      0.338300000000     0.830700000000     0.766900000000     0          
O        O      0.411100000000     0.822000000000     0.877000000000     0          
O        O      0.348550000000     0.772650000000     0.853000000000     0          
O        O      0.332900000000     0.815800000000     0.901600000000     0          
O        O      0.421700000000     0.821300000000     0.749333333333     0          
O        O      0.336800000000     0.823050000000     0.696933333333     0          
O        O      0.357200000000     0.772100000000     0.742266666667     0          
O        O      0.252200000000     0.810850000000     0.774966666667     0          
O        O      0.338200000000     0.537750000000     0.762200000000     0          
O        O      0.259950000000     0.504500000000     0.768866666667     0          
O        O      0.317500000000     0.536350000000     0.826500000000     0          
O        O      0.292350000000     0.875000000000     0.902200000000     0          
O        O      0.302850000000     0.834450000000     0.959166666667     0          
O        O      0.325100000000     0.522400000000     0.896366666667     0          
O        O      0.291950000000     0.530900000000     0.954600000000     0          
O        O      0.279650000000     0.875000000000     0.673666666667     0          
O        O      0.241050000000     0.815050000000     0.997000000000     0          
O        O      0.445200000000     0.835750000000     0.820133333333     0          
O        O      0.014300000000     0.815050000000     0.790266666667     0          
O        O      0.474850000000     0.875000000000     0.774400000000     0          
O        O      0.466850000000     0.875000000000     0.878633333333     0          
O        O      0.006250000000     0.815100000000     0.883133333333     0          
O        O      0.422000000000     0.526050000000     0.746233333333     0          
O        O      0.337850000000     0.526750000000     0.692833333333     0          
O        O      0.405900000000     0.529650000000     0.873766666667     0          
O        O      0.250000000000     0.500000000000     0.666666666667     0          
O        O      0.007700000000     0.500200000000     0.782433333333     0          
O        O      0.448100000000     0.525500000000     0.819233333333     0          
O        O      0.262050000000     0.679450000000     0.771066666667     0          
O        O      0.321750000000     0.916050000000     0.832300000000     0          
O        O      0.338300000000     0.919300000000     0.766900000000     0          
O        O      0.411100000000     0.928000000000     0.877000000000     0          
O        O      0.348550000000     0.977350000000     0.853000000000     0          
O        O      0.332900000000     0.934200000000     0.901600000000     0          
O        O      0.421700000000     0.928700000000     0.749333333333     0          
O        O      0.336800000000     0.926950000000     0.696933333333     0          
O        O      0.357200000000     0.977900000000     0.742266666667     0          
O        O      0.252200000000     0.939150000000     0.774966666667     0          
O        O      0.338200000000     0.712250000000     0.762200000000     0          
O        O      0.259950000000     0.745500000000     0.768866666667     0          
O        O      0.317500000000     0.713650000000     0.826500000000     0          
O        O      0.302850000000     0.915550000000     0.959166666667     0          
O        O      0.325100000000     0.727600000000     0.896366666667     0          
O        O      0.291950000000     0.719100000000     0.954600000000     0          
O        O      0.241050000000     0.934950000000     0.997000000000     0          
O        O      0.445200000000     0.914250000000     0.820133333333     0          
O        O      0.014300000000     0.934950000000     0.790266666667     0          
O        O      0.006250000000     0.934900000000     0.883133333333     0          
O        O      0.422000000000     0.723950000000     0.746233333333     0          
O        O      0.337850000000     0.723250000000     0.692833333333     0          
O        O      0.405900000000     0.720350000000     0.873766666667     0          
O        O      0.007700000000     0.749800000000     0.782433333333     0          
O        O      0.448100000000     0.724500000000     0.819233333333     0          
O        O      0.237950000000     0.929450000000     0.895600000000     0          
O        O      0.178250000000     0.666050000000     0.834366666667     0          
O        O      0.161700000000     0.669300000000     0.899766666667     0          
O        O      0.088900000000     0.678000000000     0.789666666667     0          
O        O      0.151450000000     0.727350000000     0.813666666667     0          
O        O      0.167100000000     0.684200000000     0.765066666667     0          
O        O      0.078300000000     0.678700000000     0.917333333333     0          
O        O      0.163200000000     0.676950000000     0.969733333333     0          
O        O      0.142800000000     0.727900000000     0.924400000000     0          
O        O      0.247800000000     0.689150000000     0.891700000000     0          
O        O      0.161800000000     0.962250000000     0.904466666667     0          
O        O      0.240050000000     0.995500000000     0.897800000000     0          
O        O      0.182500000000     0.963650000000     0.840166666667     0          
O        O      0.197150000000     0.665550000000     0.707500000000     0          
O        O      0.174900000000     0.977600000000     0.770300000000     0          
O        O      0.208050000000     0.969100000000     0.712066666667     0          
O        O      0.258950000000     0.684950000000     0.669666666667     0          
O        O      0.054800000000     0.664250000000     0.846533333333     0          
O        O      0.485700000000     0.684950000000     0.876400000000     0          
O        O      0.493750000000     0.684900000000     0.783533333333     0          
O        O      0.078000000000     0.973950000000     0.920433333333     0          
O        O      0.162150000000     0.973250000000     0.973833333333     0          
O        O      0.094100000000     0.970350000000     0.792900000000     0          
O        O      0.492300000000     0.999800000000     0.884233333333     0          
O        O      0.051900000000     0.974500000000     0.847433333333     0          
O        O      0.737950000000     0.320550000000     0.228933333333     0          
O        O      0.678250000000     0.083950000000     0.167700000000     0          
O        O      0.723850000000     0.125000000000     0.220433333333     0          
O        O      0.661700000000     0.080700000000     0.233100000000     0          
O        O      0.588900000000     0.072000000000     0.123000000000     0          
O        O      0.651450000000     0.022650000000     0.147000000000     0          
O        O      0.667100000000     0.065800000000     0.098400000000     0          
O        O      0.578300000000     0.071300000000     0.250666666667     0          
O        O      0.663200000000     0.073050000000     0.303066666667     0          
O        O      0.642800000000     0.022100000000     0.257733333333     0          
O        O      0.747800000000     0.060850000000     0.225033333333     0          
O        O      0.661800000000     0.287750000000     0.237800000000     0          
O        O      0.740050000000     0.254500000000     0.231133333333     0          
O        O      0.682500000000     0.286350000000     0.173500000000     0          
O        O      0.707650000000     0.125000000000     0.097800000000     0          
O        O      0.697150000000     0.084450000000     0.040833333333     0          
O        O      0.674900000000     0.272400000000     0.103633333333     0          
O        O      0.708050000000     0.280900000000     0.045400000000     0          
O        O      0.720350000000     0.125000000000     0.326333333333     0          
O        O      0.758950000000     0.065050000000     0.003000000000     0          
O        O      0.554800000000     0.085750000000     0.179866666667     0          
O        O      0.985700000000     0.065050000000     0.209733333333     0          
O        O      0.525150000000     0.125000000000     0.225600000000     0          
O        O      0.533150000000     0.125000000000     0.121366666667     0          
O        O      0.993750000000     0.065100000000     0.116866666667     0          
O        O      0.578000000000     0.276050000000     0.253766666667     0          
O        O      0.662150000000     0.276750000000     0.307166666667     0          
O        O      0.594100000000     0.279650000000     0.126233333333     0          
O        O      0.750000000000     0.250000000000     0.000000000000     0          
O        O      0.992300000000     0.250200000000     0.217566666667     0          
O        O      0.551900000000     0.275500000000     0.180766666667     0          
O        O      0.762050000000     0.070550000000     0.104400000000     0          
O        O      0.821750000000     0.333950000000     0.165633333333     0          
O        O      0.776150000000     0.375000000000     0.112900000000     0          
O        O      0.838300000000     0.330700000000     0.100233333333     0          
O        O      0.911100000000     0.322000000000     0.210333333333     0          
O        O      0.848550000000     0.272650000000     0.186333333333     0          
O        O      0.832900000000     0.315800000000     0.234933333333     0          
O        O      0.921700000000     0.321300000000     0.082666666667     0          
O        O      0.836800000000     0.323050000000     0.030266666667     0          
O        O      0.857200000000     0.272100000000     0.075600000000     0          
O        O      0.752200000000     0.310850000000     0.108300000000     0          
O        O      0.838200000000     0.037750000000     0.095533333333     0          
O        O      0.759950000000     0.004500000000     0.102200000000     0          
O        O      0.817500000000     0.036350000000     0.159833333333     0          
O        O      0.792350000000     0.375000000000     0.235533333333     0          
O        O      0.802850000000     0.334450000000     0.292500000000     0          
O        O      0.825100000000     0.022400000000     0.229700000000     0          
O        O      0.791950000000     0.030900000000     0.287933333333     0          
O        O      0.779650000000     0.375000000000     0.007000000000     0          
O        O      0.741050000000     0.315050000000     0.330333333333     0          
O        O      0.945200000000     0.335750000000     0.153466666667     0          
O        O      0.514300000000     0.315050000000     0.123600000000     0          
O        O      0.974850000000     0.375000000000     0.107733333333     0          
O        O      0.966850000000     0.375000000000     0.211966666667     0          
O        O      0.506250000000     0.315100000000     0.216466666667     0          
O        O      0.922000000000     0.026050000000     0.079566666667     0          
O        O      0.837850000000     0.026750000000     0.026166666667     0          
O        O      0.905900000000     0.029650000000     0.207100000000     0          
O        O      0.750000000000     0.000000000000     0.000000000000     0          
O        O      0.507700000000     0.000200000000     0.115766666667     0          
O        O      0.948100000000     0.025500000000     0.152566666667     0          
O        O      0.762050000000     0.179450000000     0.104400000000     0          
O        O      0.821750000000     0.416050000000     0.165633333333     0          
O        O      0.838300000000     0.419300000000     0.100233333333     0          
O        O      0.911100000000     0.428000000000     0.210333333333     0          
O        O      0.848550000000     0.477350000000     0.186333333333     0          
O        O      0.832900000000     0.434200000000     0.234933333333     0          
O        O      0.921700000000     0.428700000000     0.082666666667     0          
O        O      0.836800000000     0.426950000000     0.030266666667     0          
O        O      0.857200000000     0.477900000000     0.075600000000     0          
O        O      0.752200000000     0.439150000000     0.108300000000     0          
O        O      0.838200000000     0.212250000000     0.095533333333     0          
O        O      0.759950000000     0.245500000000     0.102200000000     0          
O        O      0.817500000000     0.213650000000     0.159833333333     0          
O        O      0.802850000000     0.415550000000     0.292500000000     0          
O        O      0.825100000000     0.227600000000     0.229700000000     0          
O        O      0.791950000000     0.219100000000     0.287933333333     0          
O        O      0.741050000000     0.434950000000     0.330333333333     0          
O        O      0.945200000000     0.414250000000     0.153466666667     0          
O        O      0.514300000000     0.434950000000     0.123600000000     0          
O        O      0.506250000000     0.434900000000     0.216466666667     0          
O        O      0.922000000000     0.223950000000     0.079566666667     0          
O        O      0.837850000000     0.223250000000     0.026166666667     0          
O        O      0.905900000000     0.220350000000     0.207100000000     0          
O        O      0.507700000000     0.249800000000     0.115766666667     0          
O        O      0.948100000000     0.224500000000     0.152566666667     0          
O        O      0.737950000000     0.429450000000     0.228933333333     0          
O        O      0.678250000000     0.166050000000     0.167700000000     0          
O        O      0.661700000000     0.169300000000     0.233100000000     0          
O        O      0.588900000000     0.178000000000     0.123000000000     0          
O        O      0.651450000000     0.227350000000     0.147000000000     0          
O        O      0.667100000000     0.184200000000     0.098400000000     0          
O        O      0.578300000000     0.178700000000     0.250666666667     0          
O        O      0.663200000000     0.176950000000     0.303066666667     0          
O        O      0.642800000000     0.227900000000     0.257733333333     0          
O        O      0.747800000000     0.189150000000     0.225033333333     0          
O        O      0.661800000000     0.462250000000     0.237800000000     0          
O        O      0.740050000000     0.495500000000     0.231133333333     0          
O        O      0.682500000000     0.463650000000     0.173500000000     0          
O        O      0.697150000000     0.165550000000     0.040833333333     0          
O        O      0.674900000000     0.477600000000     0.103633333333     0          
O        O      0.708050000000     0.469100000000     0.045400000000     0          
O        O      0.758950000000     0.184950000000     0.003000000000     0          
O        O      0.554800000000     0.164250000000     0.179866666667     0          
O        O      0.985700000000     0.184950000000     0.209733333333     0          
O        O      0.993750000000     0.184900000000     0.116866666667     0          
O        O      0.578000000000     0.473950000000     0.253766666667     0          
O        O      0.662150000000     0.473250000000     0.307166666667     0          
O        O      0.594100000000     0.470350000000     0.126233333333     0          
O        O      0.992300000000     0.499800000000     0.217566666667     0          
O        O      0.551900000000     0.474500000000     0.180766666667     0          
O        O      0.737950000000     0.320550000000     0.562266666667     0          
O        O      0.678250000000     0.083950000000     0.501033333333     0          
O        O      0.723850000000     0.125000000000     0.553766666667     0          
O        O      0.661700000000     0.080700000000     0.566433333333     0          
O        O      0.588900000000     0.072000000000     0.456333333333     0          
O        O      0.651450000000     0.022650000000     0.480333333333     0          
O        O      0.667100000000     0.065800000000     0.431733333333     0          
O        O      0.578300000000     0.071300000000     0.584000000000     0          
O        O      0.663200000000     0.073050000000     0.636400000000     0          
O        O      0.642800000000     0.022100000000     0.591066666667     0          
O        O      0.747800000000     0.060850000000     0.558366666667     0          
O        O      0.661800000000     0.287750000000     0.571133333333     0          
O        O      0.740050000000     0.254500000000     0.564466666667     0          
O        O      0.682500000000     0.286350000000     0.506833333333     0          
O        O      0.707650000000     0.125000000000     0.431133333333     0          
O        O      0.697150000000     0.084450000000     0.374166666667     0          
O        O      0.674900000000     0.272400000000     0.436966666667     0          
O        O      0.708050000000     0.280900000000     0.378733333333     0          
O        O      0.720350000000     0.125000000000     0.659666666667     0          
O        O      0.758950000000     0.065050000000     0.336333333333     0          
O        O      0.554800000000     0.085750000000     0.513200000000     0          
O        O      0.985700000000     0.065050000000     0.543066666667     0          
O        O      0.525150000000     0.125000000000     0.558933333333     0          
O        O      0.533150000000     0.125000000000     0.454700000000     0          
O        O      0.993750000000     0.065100000000     0.450200000000     0          
O        O      0.578000000000     0.276050000000     0.587100000000     0          
O        O      0.662150000000     0.276750000000     0.640500000000     0          
O        O      0.594100000000     0.279650000000     0.459566666667     0          
O        O      0.750000000000     0.250000000000     0.333333333333     0          
O        O      0.992300000000     0.250200000000     0.550900000000     0          
O        O      0.551900000000     0.275500000000     0.514100000000     0          
O        O      0.762050000000     0.070550000000     0.437733333333     0          
O        O      0.821750000000     0.333950000000     0.498966666667     0          
O        O      0.776150000000     0.375000000000     0.446233333333     0          
O        O      0.838300000000     0.330700000000     0.433566666667     0          
O        O      0.911100000000     0.322000000000     0.543666666667     0          
O        O      0.848550000000     0.272650000000     0.519666666667     0          
O        O      0.832900000000     0.315800000000     0.568266666667     0          
O        O      0.921700000000     0.321300000000     0.416000000000     0          
O        O      0.836800000000     0.323050000000     0.363600000000     0          
O        O      0.857200000000     0.272100000000     0.408933333333     0          
O        O      0.752200000000     0.310850000000     0.441633333333     0          
O        O      0.838200000000     0.037750000000     0.428866666667     0          
O        O      0.759950000000     0.004500000000     0.435533333333     0          
O        O      0.817500000000     0.036350000000     0.493166666667     0          
O        O      0.792350000000     0.375000000000     0.568866666667     0          
O        O      0.802850000000     0.334450000000     0.625833333333     0          
O        O      0.825100000000     0.022400000000     0.563033333333     0          
O        O      0.791950000000     0.030900000000     0.621266666667     0          
O        O      0.779650000000     0.375000000000     0.340333333333     0          
O        O      0.741050000000     0.315050000000     0.663666666667     0          
O        O      0.945200000000     0.335750000000     0.486800000000     0          
O        O      0.514300000000     0.315050000000     0.456933333333     0          
O        O      0.974850000000     0.375000000000     0.441066666667     0          
O        O      0.966850000000     0.375000000000     0.545300000000     0          
O        O      0.506250000000     0.315100000000     0.549800000000     0          
O        O      0.922000000000     0.026050000000     0.412900000000     0          
O        O      0.837850000000     0.026750000000     0.359500000000     0          
O        O      0.905900000000     0.029650000000     0.540433333333     0          
O        O      0.750000000000     0.000000000000     0.333333333333     0          
O        O      0.507700000000     0.000200000000     0.449100000000     0          
O        O      0.948100000000     0.025500000000     0.485900000000     0          
O        O      0.762050000000     0.179450000000     0.437733333333     0          
O        O      0.821750000000     0.416050000000     0.498966666667     0          
O        O      0.838300000000     0.419300000000     0.433566666667     0          
O        O      0.911100000000     0.428000000000     0.543666666667     0          
O        O      0.848550000000     0.477350000000     0.519666666667     0          
O        O      0.832900000000     0.434200000000     0.568266666667     0          
O        O      0.921700000000     0.428700000000     0.416000000000     0          
O        O      0.836800000000     0.426950000000     0.363600000000     0          
O        O      0.857200000000     0.477900000000     0.408933333333     0          
O        O      0.752200000000     0.439150000000     0.441633333333     0          
O        O      0.838200000000     0.212250000000     0.428866666667     0          
O        O      0.759950000000     0.245500000000     0.435533333333     0          
O        O      0.817500000000     0.213650000000     0.493166666667     0          
O        O      0.802850000000     0.415550000000     0.625833333333     0          
O        O      0.825100000000     0.227600000000     0.563033333333     0          
O        O      0.791950000000     0.219100000000     0.621266666667     0          
O        O      0.741050000000     0.434950000000     0.663666666667     0          
O        O      0.945200000000     0.414250000000     0.486800000000     0          
O        O      0.514300000000     0.434950000000     0.456933333333     0          
O        O      0.506250000000     0.434900000000     0.549800000000     0          
O        O      0.922000000000     0.223950000000     0.412900000000     0          
O        O      0.837850000000     0.223250000000     0.359500000000     0          
O        O      0.905900000000     0.220350000000     0.540433333333     0          
O        O      0.507700000000     0.249800000000     0.449100000000     0          
O        O      0.948100000000     0.224500000000     0.485900000000     0          
O        O      0.737950000000     0.429450000000     0.562266666667     0          
O        O      0.678250000000     0.166050000000     0.501033333333     0          
O        O      0.661700000000     0.169300000000     0.566433333333     0          
O        O      0.588900000000     0.178000000000     0.456333333333     0          
O        O      0.651450000000     0.227350000000     0.480333333333     0          
O        O      0.667100000000     0.184200000000     0.431733333333     0          
O        O      0.578300000000     0.178700000000     0.584000000000     0          
O        O      0.663200000000     0.176950000000     0.636400000000     0          
O        O      0.642800000000     0.227900000000     0.591066666667     0          
O        O      0.747800000000     0.189150000000     0.558366666667     0          
O        O      0.661800000000     0.462250000000     0.571133333333     0          
O        O      0.740050000000     0.495500000000     0.564466666667     0          
O        O      0.682500000000     0.463650000000     0.506833333333     0          
O        O      0.697150000000     0.165550000000     0.374166666667     0          
O        O      0.674900000000     0.477600000000     0.436966666667     0          
O        O      0.708050000000     0.469100000000     0.378733333333     0          
O        O      0.758950000000     0.184950000000     0.336333333333     0          
O        O      0.554800000000     0.164250000000     0.513200000000     0          
O        O      0.985700000000     0.184950000000     0.543066666667     0          
O        O      0.993750000000     0.184900000000     0.450200000000     0          
O        O      0.578000000000     0.473950000000     0.587100000000     0          
O        O      0.662150000000     0.473250000000     0.640500000000     0          
O        O      0.594100000000     0.470350000000     0.459566666667     0          
O        O      0.992300000000     0.499800000000     0.550900000000     0          
O        O      0.551900000000     0.474500000000     0.514100000000     0          
O        O      0.737950000000     0.320550000000     0.895600000000     0          
O        O      0.678250000000     0.083950000000     0.834366666667     0          
O        O      0.723850000000     0.125000000000     0.887100000000     0          
O        O      0.661700000000     0.080700000000     0.899766666667     0          
O        O      0.588900000000     0.072000000000     0.789666666667     0          
O        O      0.651450000000     0.022650000000     0.813666666667     0          
O        O      0.667100000000     0.065800000000     0.765066666667     0          
O        O      0.578300000000     0.071300000000     0.917333333333     0          
O        O      0.663200000000     0.073050000000     0.969733333333     0          
O        O      0.642800000000     0.022100000000     0.924400000000     0          
O        O      0.747800000000     0.060850000000     0.891700000000     0          
O        O      0.661800000000     0.287750000000     0.904466666667     0          
O        O      0.740050000000     0.254500000000     0.897800000000     0          
O        O      0.682500000000     0.286350000000     0.840166666667     0          
O        O      0.707650000000     0.125000000000     0.764466666667     0          
O        O      0.697150000000     0.084450000000     0.707500000000     0          
O        O      0.674900000000     0.272400000000     0.770300000000     0          
O        O      0.708050000000     0.280900000000     0.712066666667     0          
O        O      0.720350000000     0.125000000000     0.993000000000     0          
O        O      0.758950000000     0.065050000000     0.669666666667     0          
O        O      0.554800000000     0.085750000000     0.846533333333     0          
O        O      0.985700000000     0.065050000000     0.876400000000     0          
O        O      0.525150000000     0.125000000000     0.892266666667     0          
O        O      0.533150000000     0.125000000000     0.788033333333     0          
O        O      0.993750000000     0.065100000000     0.783533333333     0          
O        O      0.578000000000     0.276050000000     0.920433333333     0          
O        O      0.662150000000     0.276750000000     0.973833333333     0          
O        O      0.594100000000     0.279650000000     0.792900000000     0          
O        O      0.750000000000     0.250000000000     0.666666666667     0          
O        O      0.992300000000     0.250200000000     0.884233333333     0          
O        O      0.551900000000     0.275500000000     0.847433333333     0          
O        O      0.762050000000     0.070550000000     0.771066666667     0          
O        O      0.821750000000     0.333950000000     0.832300000000     0          
O        O      0.776150000000     0.375000000000     0.779566666667     0          
O        O      0.838300000000     0.330700000000     0.766900000000     0          
O        O      0.911100000000     0.322000000000     0.877000000000     0          
O        O      0.848550000000     0.272650000000     0.853000000000     0          
O        O      0.832900000000     0.315800000000     0.901600000000     0          
O        O      0.921700000000     0.321300000000     0.749333333333     0          
O        O      0.836800000000     0.323050000000     0.696933333333     0          
O        O      0.857200000000     0.272100000000     0.742266666667     0          
O        O      0.752200000000     0.310850000000     0.774966666667     0          
O        O      0.838200000000     0.037750000000     0.762200000000     0          
O        O      0.759950000000     0.004500000000     0.768866666667     0          
O        O      0.817500000000     0.036350000000     0.826500000000     0          
O        O      0.792350000000     0.375000000000     0.902200000000     0          
O        O      0.802850000000     0.334450000000     0.959166666667     0          
O        O      0.825100000000     0.022400000000     0.896366666667     0          
O        O      0.791950000000     0.030900000000     0.954600000000     0          
O        O      0.779650000000     0.375000000000     0.673666666667     0          
O        O      0.741050000000     0.315050000000     0.997000000000     0          
O        O      0.945200000000     0.335750000000     0.820133333333     0          
O        O      0.514300000000     0.315050000000     0.790266666667     0          
O        O      0.974850000000     0.375000000000     0.774400000000     0          
O        O      0.966850000000     0.375000000000     0.878633333333     0          
O        O      0.506250000000     0.315100000000     0.883133333333     0          
O        O      0.922000000000     0.026050000000     0.746233333333     0          
O        O      0.837850000000     0.026750000000     0.692833333333     0          
O        O      0.905900000000     0.029650000000     0.873766666667     0          
O        O      0.750000000000     0.000000000000     0.666666666667     0          
O        O      0.507700000000     0.000200000000     0.782433333333     0          
O        O      0.948100000000     0.025500000000     0.819233333333     0          
O        O      0.762050000000     0.179450000000     0.771066666667     0          
O        O      0.821750000000     0.416050000000     0.832300000000     0          
O        O      0.838300000000     0.419300000000     0.766900000000     0          
O        O      0.911100000000     0.428000000000     0.877000000000     0          
O        O      0.848550000000     0.477350000000     0.853000000000     0          
O        O      0.832900000000     0.434200000000     0.901600000000     0          
O        O      0.921700000000     0.428700000000     0.749333333333     0          
O        O      0.836800000000     0.426950000000     0.696933333333     0          
O        O      0.857200000000     0.477900000000     0.742266666667     0          
O        O      0.752200000000     0.439150000000     0.774966666667     0          
O        O      0.838200000000     0.212250000000     0.762200000000     0          
O        O      0.759950000000     0.245500000000     0.768866666667     0          
O        O      0.817500000000     0.213650000000     0.826500000000     0          
O        O      0.802850000000     0.415550000000     0.959166666667     0          
O        O      0.825100000000     0.227600000000     0.896366666667     0          
O        O      0.791950000000     0.219100000000     0.954600000000     0          
O        O      0.741050000000     0.434950000000     0.997000000000     0          
O        O      0.945200000000     0.414250000000     0.820133333333     0          
O        O      0.514300000000     0.434950000000     0.790266666667     0          
O        O      0.506250000000     0.434900000000     0.883133333333     0          
O        O      0.922000000000     0.223950000000     0.746233333333     0          
O        O      0.837850000000     0.223250000000     0.692833333333     0          
O        O      0.905900000000     0.220350000000     0.873766666667     0          
O        O      0.507700000000     0.249800000000     0.782433333333     0          
O        O      0.948100000000     0.224500000000     0.819233333333     0          
O        O      0.737950000000     0.429450000000     0.895600000000     0          
O        O      0.678250000000     0.166050000000     0.834366666667     0          
O        O      0.661700000000     0.169300000000     0.899766666667     0          
O        O      0.588900000000     0.178000000000     0.789666666667     0          
O        O      0.651450000000     0.227350000000     0.813666666667     0          
O        O      0.667100000000     0.184200000000     0.765066666667     0          
O        O      0.578300000000     0.178700000000     0.917333333333     0          
O        O      0.663200000000     0.176950000000     0.969733333333     0          
O        O      0.642800000000     0.227900000000     0.924400000000     0          
O        O      0.747800000000     0.189150000000     0.891700000000     0          
O        O      0.661800000000     0.462250000000     0.904466666667     0          
O        O      0.740050000000     0.495500000000     0.897800000000     0          
O        O      0.682500000000     0.463650000000     0.840166666667     0          
O        O      0.697150000000     0.165550000000     0.707500000000     0          
O        O      0.674900000000     0.477600000000     0.770300000000     0          
O        O      0.708050000000     0.469100000000     0.712066666667     0          
O        O      0.758950000000     0.184950000000     0.669666666667     0          
O        O      0.554800000000     0.164250000000     0.846533333333     0          
O        O      0.985700000000     0.184950000000     0.876400000000     0          
O        O      0.993750000000     0.184900000000     0.783533333333     0          
O        O      0.578000000000     0.473950000000     0.920433333333     0          
O        O      0.662150000000     0.473250000000     0.973833333333     0          
O        O      0.594100000000     0.470350000000     0.792900000000     0          
O        O      0.992300000000     0.499800000000     0.884233333333     0          
O        O      0.551900000000     0.474500000000     0.847433333333     0          
O        O      0.737950000000     0.820550000000     0.228933333333     0          
O        O      0.678250000000     0.583950000000     0.167700000000     0          
O        O      0.723850000000     0.625000000000     0.220433333333     0          
O        O      0.661700000000     0.580700000000     0.233100000000     0          
O        O      0.588900000000     0.572000000000     0.123000000000     0          
O        O      0.651450000000     0.522650000000     0.147000000000     0          
O        O      0.667100000000     0.565800000000     0.098400000000     0          
O        O      0.578300000000     0.571300000000     0.250666666667     0          
O        O      0.663200000000     0.573050000000     0.303066666667     0          
O        O      0.642800000000     0.522100000000     0.257733333333     0          
O        O      0.747800000000     0.560850000000     0.225033333333     0          
O        O      0.661800000000     0.787750000000     0.237800000000     0          
O        O      0.740050000000     0.754500000000     0.231133333333     0          
O        O      0.682500000000     0.786350000000     0.173500000000     0          
O        O      0.707650000000     0.625000000000     0.097800000000     0          
O        O      0.697150000000     0.584450000000     0.040833333333     0          
O        O      0.674900000000     0.772400000000     0.103633333333     0          
O        O      0.708050000000     0.780900000000     0.045400000000     0          
O        O      0.720350000000     0.625000000000     0.326333333333     0          
O        O      0.758950000000     0.565050000000     0.003000000000     0          
O        O      0.554800000000     0.585750000000     0.179866666667     0          
O        O      0.985700000000     0.565050000000     0.209733333333     0          
O        O      0.525150000000     0.625000000000     0.225600000000     0          
O        O      0.533150000000     0.625000000000     0.121366666667     0          
O        O      0.993750000000     0.565100000000     0.116866666667     0          
O        O      0.578000000000     0.776050000000     0.253766666667     0          
O        O      0.662150000000     0.776750000000     0.307166666667     0          
O        O      0.594100000000     0.779650000000     0.126233333333     0          
O        O      0.750000000000     0.750000000000     0.000000000000     0          
O        O      0.992300000000     0.750200000000     0.217566666667     0          
O        O      0.551900000000     0.775500000000     0.180766666667     0          
O        O      0.762050000000     0.570550000000     0.104400000000     0          
O        O      0.821750000000     0.833950000000     0.165633333333     0          
O        O      0.776150000000     0.875000000000     0.112900000000     0          
O        O      0.838300000000     0.830700000000     0.100233333333     0          
O        O      0.911100000000     0.822000000000     0.210333333333     0          
O        O      0.848550000000     0.772650000000     0.186333333333     0          
O        O      0.832900000000     0.815800000000     0.234933333333     0          
O        O      0.921700000000     0.821300000000     0.082666666667     0          
O        O      0.836800000000     0.823050000000     0.030266666667     0          
O        O      0.857200000000     0.772100000000     0.075600000000     0          
O        O      0.752200000000     0.810850000000     0.108300000000     0          
O        O      0.838200000000     0.537750000000     0.095533333333     0          
O        O      0.759950000000     0.504500000000     0.102200000000     0          
O        O      0.817500000000     0.536350000000     0.159833333333     0          
O        O      0.792350000000     0.875000000000     0.235533333333     0          
O        O      0.802850000000     0.834450000000     0.292500000000     0          
O        O      0.825100000000     0.522400000000     0.229700000000     0          
O        O      0.791950000000     0.530900000000     0.287933333333     0          
O        O      0.779650000000     0.875000000000     0.007000000000     0          
O        O      0.741050000000     0.815050000000     0.330333333333     0          
O        O      0.945200000000     0.835750000000     0.153466666667     0          
O        O      0.514300000000     0.815050000000     0.123600000000     0          
O        O      0.974850000000     0.875000000000     0.107733333333     0          
O        O      0.966850000000     0.875000000000     0.211966666667     0          
O        O      0.506250000000     0.815100000000     0.216466666667     0          
O        O      0.922000000000     0.526050000000     0.079566666667     0          
O        O      0.837850000000     0.526750000000     0.026166666667     0          
O        O      0.905900000000     0.529650000000     0.207100000000     0          
O        O      0.750000000000     0.500000000000     0.000000000000     0          
O        O      0.507700000000     0.500200000000     0.115766666667     0          
O        O      0.948100000000     0.525500000000     0.152566666667     0          
O        O      0.762050000000     0.679450000000     0.104400000000     0          
O        O      0.821750000000     0.916050000000     0.165633333333     0          
O        O      0.838300000000     0.919300000000     0.100233333333     0          
O        O      0.911100000000     0.928000000000     0.210333333333     0          
O        O      0.848550000000     0.977350000000     0.186333333333     0          
O        O      0.832900000000     0.934200000000     0.234933333333     0          
O        O      0.921700000000     0.928700000000     0.082666666667     0          
O        O      0.836800000000     0.926950000000     0.030266666667     0          
O        O      0.857200000000     0.977900000000     0.075600000000     0          
O        O      0.752200000000     0.939150000000     0.108300000000     0          
O        O      0.838200000000     0.712250000000     0.095533333333     0          
O        O      0.759950000000     0.745500000000     0.102200000000     0          
O        O      0.817500000000     0.713650000000     0.159833333333     0          
O        O      0.802850000000     0.915550000000     0.292500000000     0          
O        O      0.825100000000     0.727600000000     0.229700000000     0          
O        O      0.791950000000     0.719100000000     0.287933333333     0          
O        O      0.741050000000     0.934950000000     0.330333333333     0          
O        O      0.945200000000     0.914250000000     0.153466666667     0          
O        O      0.514300000000     0.934950000000     0.123600000000     0          
O        O      0.506250000000     0.934900000000     0.216466666667     0          
O        O      0.922000000000     0.723950000000     0.079566666667     0          
O        O      0.837850000000     0.723250000000     0.026166666667     0          
O        O      0.905900000000     0.720350000000     0.207100000000     0          
O        O      0.507700000000     0.749800000000     0.115766666667     0          
O        O      0.948100000000     0.724500000000     0.152566666667     0          
O        O      0.737950000000     0.929450000000     0.228933333333     0          
O        O      0.678250000000     0.666050000000     0.167700000000     0          
O        O      0.661700000000     0.669300000000     0.233100000000     0          
O        O      0.588900000000     0.678000000000     0.123000000000     0          
O        O      0.651450000000     0.727350000000     0.147000000000     0          
O        O      0.667100000000     0.684200000000     0.098400000000     0          
O        O      0.578300000000     0.678700000000     0.250666666667     0          
O        O      0.663200000000     0.676950000000     0.303066666667     0          
O        O      0.642800000000     0.727900000000     0.257733333333     0          
O        O      0.747800000000     0.689150000000     0.225033333333     0          
O        O      0.661800000000     0.962250000000     0.237800000000     0          
O        O      0.740050000000     0.995500000000     0.231133333333     0          
O        O      0.682500000000     0.963650000000     0.173500000000     0          
O        O      0.697150000000     0.665550000000     0.040833333333     0          
O        O      0.674900000000     0.977600000000     0.103633333333     0          
O        O      0.708050000000     0.969100000000     0.045400000000     0          
O        O      0.758950000000     0.684950000000     0.003000000000     0          
O        O      0.554800000000     0.664250000000     0.179866666667     0          
O        O      0.985700000000     0.684950000000     0.209733333333     0          
O        O      0.993750000000     0.684900000000     0.116866666667     0          
O        O      0.578000000000     0.973950000000     0.253766666667     0          
O        O      0.662150000000     0.973250000000     0.307166666667     0          
O        O      0.594100000000     0.970350000000     0.126233333333     0          
O        O      0.992300000000     0.999800000000     0.217566666667     0          
O        O      0.551900000000     0.974500000000     0.180766666667     0          
O        O      0.737950000000     0.820550000000     0.562266666667     0          
O        O      0.678250000000     0.583950000000     0.501033333333     0          
O        O      0.723850000000     0.625000000000     0.553766666667     0          
O        O      0.661700000000     0.580700000000     0.566433333333     0          
O        O      0.588900000000     0.572000000000     0.456333333333     0          
O        O      0.651450000000     0.522650000000     0.480333333333     0          
O        O      0.667100000000     0.565800000000     0.431733333333     0          
O        O      0.578300000000     0.571300000000     0.584000000000     0          
O        O      0.663200000000     0.573050000000     0.636400000000     0          
O        O      0.642800000000     0.522100000000     0.591066666667     0          
O        O      0.747800000000     0.560850000000     0.558366666667     0          
O        O      0.661800000000     0.787750000000     0.571133333333     0          
O        O      0.740050000000     0.754500000000     0.564466666667     0          
O        O      0.682500000000     0.786350000000     0.506833333333     0          
O        O      0.707650000000     0.625000000000     0.431133333333     0          
O        O      0.697150000000     0.584450000000     0.374166666667     0          
O        O      0.674900000000     0.772400000000     0.436966666667     0          
O        O      0.708050000000     0.780900000000     0.378733333333     0          
O        O      0.720350000000     0.625000000000     0.659666666667     0          
O        O      0.758950000000     0.565050000000     0.336333333333     0          
O        O      0.554800000000     0.585750000000     0.513200000000     0          
O        O      0.985700000000     0.565050000000     0.543066666667     0          
O        O      0.525150000000     0.625000000000     0.558933333333     0          
O        O      0.533150000000     0.625000000000     0.454700000000     0          
O        O      0.993750000000     0.565100000000     0.450200000000     0          
O        O      0.578000000000     0.776050000000     0.587100000000     0          
O        O      0.662150000000     0.776750000000     0.640500000000     0          
O        O      0.594100000000     0.779650000000     0.459566666667     0          
O        O      0.750000000000     0.750000000000     0.333333333333     0          
O        O      0.992300000000     0.750200000000     0.550900000000     0          
O        O      0.551900000000     0.775500000000     0.514100000000     0          
O        O      0.762050000000     0.570550000000     0.437733333333     0          
O        O      0.821750000000     0.833950000000     0.498966666667     0          
O        O      0.776150000000     0.875000000000     0.446233333333     0          
O        O      0.838300000000     0.830700000000     0.433566666667     0          
O        O      0.911100000000     0.822000000000     0.543666666667     0          
O        O      0.848550000000     0.772650000000     0.519666666667     0          
O        O      0.832900000000     0.815800000000     0.568266666667     0          
O        O      0.921700000000     0.821300000000     0.416000000000     0          
O        O      0.836800000000     0.823050000000     0.363600000000     0          
O        O      0.857200000000     0.772100000000     0.408933333333     0          
O        O      0.752200000000     0.810850000000     0.441633333333     0          
O        O      0.838200000000     0.537750000000     0.428866666667     0          
O        O      0.759950000000     0.504500000000     0.435533333333     0          
O        O      0.817500000000     0.536350000000     0.493166666667     0          
O        O      0.792350000000     0.875000000000     0.568866666667     0          
O        O      0.802850000000     0.834450000000     0.625833333333     0          
O        O      0.825100000000     0.522400000000     0.563033333333     0          
O        O      0.791950000000     0.530900000000     0.621266666667     0          
O        O      0.779650000000     0.875000000000     0.340333333333     0          
O        O      0.741050000000     0.815050000000     0.663666666667     0          
O        O      0.945200000000     0.835750000000     0.486800000000     0          
O        O      0.514300000000     0.815050000000     0.456933333333     0          
O        O      0.974850000000     0.875000000000     0.441066666667     0          
O        O      0.966850000000     0.875000000000     0.545300000000     0          
O        O      0.506250000000     0.815100000000     0.549800000000     0          
O        O      0.922000000000     0.526050000000     0.412900000000     0          
O        O      0.837850000000     0.526750000000     0.359500000000     0          
O        O      0.905900000000     0.529650000000     0.540433333333     0          
O        O      0.750000000000     0.500000000000     0.333333333333     0          
O        O      0.507700000000     0.500200000000     0.449100000000     0          
O        O      0.948100000000     0.525500000000     0.485900000000     0          
O        O      0.762050000000     0.679450000000     0.437733333333     0          
O        O      0.821750000000     0.916050000000     0.498966666667     0          
O        O      0.838300000000     0.919300000000     0.433566666667     0          
O        O      0.911100000000     0.928000000000     0.543666666667     0          
O        O      0.848550000000     0.977350000000     0.519666666667     0          
O        O      0.832900000000     0.934200000000     0.568266666667     0          
O        O      0.921700000000     0.928700000000     0.416000000000     0          
O        O      0.836800000000     0.926950000000     0.363600000000     0          
O        O      0.857200000000     0.977900000000     0.408933333333     0          
O        O      0.752200000000     0.939150000000     0.441633333333     0          
O        O      0.838200000000     0.712250000000     0.428866666667     0          
O        O      0.759950000000     0.745500000000     0.435533333333     0          
O        O      0.817500000000     0.713650000000     0.493166666667     0          
O        O      0.802850000000     0.915550000000     0.625833333333     0          
O        O      0.825100000000     0.727600000000     0.563033333333     0          
O        O      0.791950000000     0.719100000000     0.621266666667     0          
O        O      0.741050000000     0.934950000000     0.663666666667     0          
O        O      0.945200000000     0.914250000000     0.486800000000     0          
O        O      0.514300000000     0.934950000000     0.456933333333     0          
O        O      0.506250000000     0.934900000000     0.549800000000     0          
O        O      0.922000000000     0.723950000000     0.412900000000     0          
O        O      0.837850000000     0.723250000000     0.359500000000     0          
O        O      0.905900000000     0.720350000000     0.540433333333     0          
O        O      0.507700000000     0.749800000000     0.449100000000     0          
O        O      0.948100000000     0.724500000000     0.485900000000     0          
O        O      0.737950000000     0.929450000000     0.562266666667     0          
O        O      0.678250000000     0.666050000000     0.501033333333     0          
O        O      0.661700000000     0.669300000000     0.566433333333     0          
O        O      0.588900000000     0.678000000000     0.456333333333     0          
O        O      0.651450000000     0.727350000000     0.480333333333     0          
O        O      0.667100000000     0.684200000000     0.431733333333     0          
O        O      0.578300000000     0.678700000000     0.584000000000     0          
O        O      0.663200000000     0.676950000000     0.636400000000     0          
O        O      0.642800000000     0.727900000000     0.591066666667     0          
O        O      0.747800000000     0.689150000000     0.558366666667     0          
O        O      0.661800000000     0.962250000000     0.571133333333     0          
O        O      0.740050000000     0.995500000000     0.564466666667     0          
O        O      0.682500000000     0.963650000000     0.506833333333     0          
O        O      0.697150000000     0.665550000000     0.374166666667     0          
O        O      0.674900000000     0.977600000000     0.436966666667     0          
O        O      0.708050000000     0.969100000000     0.378733333333     0          
O        O      0.758950000000     0.684950000000     0.336333333333     0          
O        O      0.554800000000     0.664250000000     0.513200000000     0          
O        O      0.985700000000     0.684950000000     0.543066666667     0          
O        O      0.993750000000     0.684900000000     0.450200000000     0          
O        O      0.578000000000     0.973950000000     0.587100000000     0          
O        O      0.662150000000     0.973250000000     0.640500000000     0          
O        O      0.594100000000     0.970350000000     0.459566666667     0          
O        O      0.992300000000     0.999800000000     0.550900000000     0          
O        O      0.551900000000     0.974500000000     0.514100000000     0          
O        O      0.737950000000     0.820550000000     0.895600000000     0          
O        O      0.678250000000     0.583950000000     0.834366666667     0          
O        O      0.723850000000     0.625000000000     0.887100000000     0          
O        O      0.661700000000     0.580700000000     0.899766666667     0          
O        O      0.588900000000     0.572000000000     0.789666666667     0          
O        O      0.651450000000     0.522650000000     0.813666666667     0          
O        O      0.667100000000     0.565800000000     0.765066666667     0          
O        O      0.578300000000     0.571300000000     0.917333333333     0          
O        O      0.663200000000     0.573050000000     0.969733333333     0          
O        O      0.642800000000     0.522100000000     0.924400000000     0          
O        O      0.747800000000     0.560850000000     0.891700000000     0          
O        O      0.661800000000     0.787750000000     0.904466666667     0          
O        O      0.740050000000     0.754500000000     0.897800000000     0          
O        O      0.682500000000     0.786350000000     0.840166666667     0          
O        O      0.707650000000     0.625000000000     0.764466666667     0          
O        O      0.697150000000     0.584450000000     0.707500000000     0          
O        O      0.674900000000     0.772400000000     0.770300000000     0          
O        O      0.708050000000     0.780900000000     0.712066666667     0          
O        O      0.720350000000     0.625000000000     0.993000000000     0          
O        O      0.758950000000     0.565050000000     0.669666666667     0          
O        O      0.554800000000     0.585750000000     0.846533333333     0          
O        O      0.985700000000     0.565050000000     0.876400000000     0          
O        O      0.525150000000     0.625000000000     0.892266666667     0          
O        O      0.533150000000     0.625000000000     0.788033333333     0          
O        O      0.993750000000     0.565100000000     0.783533333333     0          
O        O      0.578000000000     0.776050000000     0.920433333333     0          
O        O      0.662150000000     0.776750000000     0.973833333333     0          
O        O      0.594100000000     0.779650000000     0.792900000000     0          
O        O      0.750000000000     0.750000000000     0.666666666667     0          
O        O      0.992300000000     0.750200000000     0.884233333333     0          
O        O      0.551900000000     0.775500000000     0.847433333333     0          
O        O      0.762050000000     0.570550000000     0.771066666667     0          
O        O      0.821750000000     0.833950000000     0.832300000000     0          
O        O      0.776150000000     0.875000000000     0.779566666667     0          
O        O      0.838300000000     0.830700000000     0.766900000000     0          
O        O      0.911100000000     0.822000000000     0.877000000000     0          
O        O      0.848550000000     0.772650000000     0.853000000000     0          
O        O      0.832900000000     0.815800000000     0.901600000000     0          
O        O      0.921700000000     0.821300000000     0.749333333333     0          
O        O      0.836800000000     0.823050000000     0.696933333333     0          
O        O      0.857200000000     0.772100000000     0.742266666667     0          
O        O      0.752200000000     0.810850000000     0.774966666667     0          
O        O      0.838200000000     0.537750000000     0.762200000000     0          
O        O      0.759950000000     0.504500000000     0.768866666667     0          
O        O      0.817500000000     0.536350000000     0.826500000000     0          
O        O      0.792350000000     0.875000000000     0.902200000000     0          
O        O      0.802850000000     0.834450000000     0.959166666667     0          
O        O      0.825100000000     0.522400000000     0.896366666667     0          
O        O      0.791950000000     0.530900000000     0.954600000000     0          
O        O      0.779650000000     0.875000000000     0.673666666667     0          
O        O      0.741050000000     0.815050000000     0.997000000000     0          
O        O      0.945200000000     0.835750000000     0.820133333333     0          
O        O      0.514300000000     0.815050000000     0.790266666667     0          
O        O      0.974850000000     0.875000000000     0.774400000000     0          
O        O      0.966850000000     0.875000000000     0.878633333333     0          
O        O      0.506250000000     0.815100000000     0.883133333333     0          
O        O      0.922000000000     0.526050000000     0.746233333333     0          
O        O      0.837850000000     0.526750000000     0.692833333333     0          
O        O      0.905900000000     0.529650000000     0.873766666667     0          
O        O      0.750000000000     0.500000000000     0.666666666667     0          
O        O      0.507700000000     0.500200000000     0.782433333333     0          
O        O      0.948100000000     0.525500000000     0.819233333333     0          
O        O      0.762050000000     0.679450000000     0.771066666667     0          
O        O      0.821750000000     0.916050000000     0.832300000000     0          
O        O      0.838300000000     0.919300000000     0.766900000000     0          
O        O      0.911100000000     0.928000000000     0.877000000000     0          
O        O      0.848550000000     0.977350000000     0.853000000000     0          
O        O      0.832900000000     0.934200000000     0.901600000000     0          
O        O      0.921700000000     0.928700000000     0.749333333333     0          
O        O      0.836800000000     0.926950000000     0.696933333333     0          
O        O      0.857200000000     0.977900000000     0.742266666667     0          
O        O      0.752200000000     0.939150000000     0.774966666667     0          
O        O      0.838200000000     0.712250000000     0.762200000000     0          
O        O      0.759950000000     0.745500000000     0.768866666667     0          
O        O      0.817500000000     0.713650000000     0.826500000000     0          
O        O      0.802850000000     0.915550000000     0.959166666667     0          
O        O      0.825100000000     0.727600000000     0.896366666667     0          
O        O      0.791950000000     0.719100000000     0.954600000000     0          
O        O      0.741050000000     0.934950000000     0.997000000000     0          
O        O      0.945200000000     0.914250000000     0.820133333333     0          
O        O      0.514300000000     0.934950000000     0.790266666667     0          
O        O      0.506250000000     0.934900000000     0.883133333333     0          
O        O      0.922000000000     0.723950000000     0.746233333333     0          
O        O      0.837850000000     0.723250000000     0.692833333333     0          
O        O      0.905900000000     0.720350000000     0.873766666667     0          
O        O      0.507700000000     0.749800000000     0.782433333333     0          
O        O      0.948100000000     0.724500000000     0.819233333333     0          
O        O      0.737950000000     0.929450000000     0.895600000000     0          
O        O      0.678250000000     0.666050000000     0.834366666667     0          
O        O      0.661700000000     0.669300000000     0.899766666667     0          
O        O      0.588900000000     0.678000000000     0.789666666667     0          
O        O      0.651450000000     0.727350000000     0.813666666667     0          
O        O      0.667100000000     0.684200000000     0.765066666667     0          
O        O      0.578300000000     0.678700000000     0.917333333333     0          
O        O      0.663200000000     0.676950000000     0.969733333333     0          
O        O      0.642800000000     0.727900000000     0.924400000000     0          
O        O      0.747800000000     0.689150000000     0.891700000000     0          
O        O      0.661800000000     0.962250000000     0.904466666667     0          
O        O      0.740050000000     0.995500000000     0.897800000000     0          
O        O      0.682500000000     0.963650000000     0.840166666667     0          
O        O      0.697150000000     0.665550000000     0.707500000000     0          
O        O      0.674900000000     0.977600000000     0.770300000000     0          
O        O      0.708050000000     0.969100000000     0.712066666667     0          
O        O      0.758950000000     0.684950000000     0.669666666667     0          
O        O      0.554800000000     0.664250000000     0.846533333333     0          
O        O      0.985700000000     0.684950000000     0.876400000000     0          
O        O      0.993750000000     0.684900000000     0.783533333333     0          
O        O      0.578000000000     0.973950000000     0.920433333333     0          
O        O      0.662150000000     0.973250000000     0.973833333333     0          
O        O      0.594100000000     0.970350000000     0.792900000000     0          
O        O      0.992300000000     0.999800000000     0.884233333333     0          
O        O      0.551900000000     0.974500000000     0.847433333333     0          


