data_zeolite

_audit_creation_method RASPA-1.0
_audit_creation_date 2021-6-12
_audit_author_name ''

_cell_length_a    44.7444
_cell_length_b    44.7444
_cell_length_c    44.7444
_cell_angle_alpha 90
_cell_angle_beta  90
_cell_angle_gamma 90
_cell_volume      89580.9

_symmetry_cell_setting          cubic
_symmetry_space_group_name_Hall 'P 1'
_symmetry_space_group_name_H-M  'P 1'
_symmetry_Int_Tables_number     1

_symmetry_equiv_pos_as_xyz 'x,y,z'

loop_
_atom_site_label
_atom_site_type_symbol
_atom_site_fract_x
_atom_site_fract_y
_atom_site_fract_z
_atom_site_charge
T        Si     0.854110000000     0.583570000000     0.534600000000     0          
T        Si     0.812280000000     0.638780000000     0.534530000000     0          
T        Si     0.742800000000     0.639190000000     0.534470000000     0          
T        Si     0.701250000000     0.583420000000     0.534550000000     0          
T        Si     0.632220000000     0.583460000000     0.534550000000     0          
T        Si     0.577310000000     0.083590000000     0.034650000000     0          
T        Si     0.534490000000     0.137830000000     0.034510000000     0          
T        Si     0.694120000000     0.645320000000     0.812540000000     0          
T        Si     0.743480000000     0.576720000000     0.694640000000     0          
T        Si     0.694470000000     0.645590000000     0.743360000000     0          
T        Si     0.694670000000     0.812680000000     0.576270000000     0          
T        Si     0.965740000000     0.694000000000     0.645090000000     0          
T        Si     0.924070000000     0.805380000000     0.534220000000     0          
T        Si     0.923410000000     0.354280000000     0.749370000000     0          
T        Si     0.750000000000     0.354240000000     0.145760000000     0          
T        Si     0.750000000000     0.423430000000     0.076570000000     0          
T        Si     0.416430000000     0.854110000000     0.534600000000     0          
T        Si     0.361220000000     0.812280000000     0.534530000000     0          
T        Si     0.360810000000     0.742800000000     0.534470000000     0          
T        Si     0.416580000000     0.701250000000     0.534550000000     0          
T        Si     0.416540000000     0.632220000000     0.534550000000     0          
T        Si     0.916410000000     0.577310000000     0.034650000000     0          
T        Si     0.862170000000     0.534490000000     0.034510000000     0          
T        Si     0.354680000000     0.694120000000     0.812540000000     0          
T        Si     0.423280000000     0.743480000000     0.694640000000     0          
T        Si     0.354410000000     0.694470000000     0.743360000000     0          
T        Si     0.187320000000     0.694670000000     0.576270000000     0          
T        Si     0.306000000000     0.965740000000     0.645090000000     0          
T        Si     0.194620000000     0.924070000000     0.534220000000     0          
T        Si     0.645720000000     0.923410000000     0.749370000000     0          
T        Si     0.645760000000     0.750000000000     0.145760000000     0          
T        Si     0.576570000000     0.750000000000     0.076570000000     0          
T        Si     0.145890000000     0.416430000000     0.534600000000     0          
T        Si     0.187720000000     0.361220000000     0.534530000000     0          
T        Si     0.257200000000     0.360810000000     0.534470000000     0          
T        Si     0.298750000000     0.416580000000     0.534550000000     0          
T        Si     0.367780000000     0.416540000000     0.534550000000     0          
T        Si     0.422690000000     0.916410000000     0.034650000000     0          
T        Si     0.465510000000     0.862170000000     0.034510000000     0          
T        Si     0.305880000000     0.354680000000     0.812540000000     0          
T        Si     0.256520000000     0.423280000000     0.694640000000     0          
T        Si     0.305530000000     0.354410000000     0.743360000000     0          
T        Si     0.305330000000     0.187320000000     0.576270000000     0          
T        Si     0.034260000000     0.306000000000     0.645090000000     0          
T        Si     0.075930000000     0.194620000000     0.534220000000     0          
T        Si     0.076590000000     0.645720000000     0.749370000000     0          
T        Si     0.250000000000     0.645760000000     0.145760000000     0          
T        Si     0.250000000000     0.576570000000     0.076570000000     0          
T        Si     0.583570000000     0.145890000000     0.534600000000     0          
T        Si     0.638780000000     0.187720000000     0.534530000000     0          
T        Si     0.639190000000     0.257200000000     0.534470000000     0          
T        Si     0.583420000000     0.298750000000     0.534550000000     0          
T        Si     0.583460000000     0.367780000000     0.534550000000     0          
T        Si     0.083590000000     0.422690000000     0.034650000000     0          
T        Si     0.137830000000     0.465510000000     0.034510000000     0          
T        Si     0.645320000000     0.305880000000     0.812540000000     0          
T        Si     0.576720000000     0.256520000000     0.694640000000     0          
T        Si     0.645590000000     0.305530000000     0.743360000000     0          
T        Si     0.812680000000     0.305330000000     0.576270000000     0          
T        Si     0.694000000000     0.034260000000     0.645090000000     0          
T        Si     0.805380000000     0.075930000000     0.534220000000     0          
T        Si     0.354280000000     0.076590000000     0.749370000000     0          
T        Si     0.354240000000     0.250000000000     0.145760000000     0          
T        Si     0.423430000000     0.250000000000     0.076570000000     0          
T        Si     0.854110000000     0.416430000000     0.465400000000     0          
T        Si     0.812280000000     0.361220000000     0.465470000000     0          
T        Si     0.742800000000     0.360810000000     0.465530000000     0          
T        Si     0.701250000000     0.416580000000     0.465450000000     0          
T        Si     0.632220000000     0.416540000000     0.465450000000     0          
T        Si     0.577310000000     0.916410000000     0.965350000000     0          
T        Si     0.534490000000     0.862170000000     0.965490000000     0          
T        Si     0.694120000000     0.354680000000     0.187460000000     0          
T        Si     0.743480000000     0.423280000000     0.305360000000     0          
T        Si     0.694470000000     0.354410000000     0.256640000000     0          
T        Si     0.694670000000     0.187320000000     0.423730000000     0          
T        Si     0.965740000000     0.306000000000     0.354910000000     0          
T        Si     0.924070000000     0.194620000000     0.465780000000     0          
T        Si     0.923410000000     0.645720000000     0.250630000000     0          
T        Si     0.750000000000     0.645760000000     0.854240000000     0          
T        Si     0.750000000000     0.576570000000     0.923430000000     0          
T        Si     0.583570000000     0.854110000000     0.465400000000     0          
T        Si     0.638780000000     0.812280000000     0.465470000000     0          
T        Si     0.639190000000     0.742800000000     0.465530000000     0          
T        Si     0.583420000000     0.701250000000     0.465450000000     0          
T        Si     0.583460000000     0.632220000000     0.465450000000     0          
T        Si     0.083590000000     0.577310000000     0.965350000000     0          
T        Si     0.137830000000     0.534490000000     0.965490000000     0          
T        Si     0.645320000000     0.694120000000     0.187460000000     0          
T        Si     0.576720000000     0.743480000000     0.305360000000     0          
T        Si     0.645590000000     0.694470000000     0.256640000000     0          
T        Si     0.812680000000     0.694670000000     0.423730000000     0          
T        Si     0.694000000000     0.965740000000     0.354910000000     0          
T        Si     0.805380000000     0.924070000000     0.465780000000     0          
T        Si     0.354280000000     0.923410000000     0.250630000000     0          
T        Si     0.354240000000     0.750000000000     0.854240000000     0          
T        Si     0.423430000000     0.750000000000     0.923430000000     0          
T        Si     0.145890000000     0.583570000000     0.465400000000     0          
T        Si     0.187720000000     0.638780000000     0.465470000000     0          
T        Si     0.257200000000     0.639190000000     0.465530000000     0          
T        Si     0.298750000000     0.583420000000     0.465450000000     0          
T        Si     0.367780000000     0.583460000000     0.465450000000     0          
T        Si     0.422690000000     0.083590000000     0.965350000000     0          
T        Si     0.465510000000     0.137830000000     0.965490000000     0          
T        Si     0.305880000000     0.645320000000     0.187460000000     0          
T        Si     0.256520000000     0.576720000000     0.305360000000     0          
T        Si     0.305530000000     0.645590000000     0.256640000000     0          
T        Si     0.305330000000     0.812680000000     0.423730000000     0          
T        Si     0.034260000000     0.694000000000     0.354910000000     0          
T        Si     0.075930000000     0.805380000000     0.465780000000     0          
T        Si     0.076590000000     0.354280000000     0.250630000000     0          
T        Si     0.250000000000     0.354240000000     0.854240000000     0          
T        Si     0.250000000000     0.423430000000     0.923430000000     0          
T        Si     0.416430000000     0.145890000000     0.465400000000     0          
T        Si     0.361220000000     0.187720000000     0.465470000000     0          
T        Si     0.360810000000     0.257200000000     0.465530000000     0          
T        Si     0.416580000000     0.298750000000     0.465450000000     0          
T        Si     0.416540000000     0.367780000000     0.465450000000     0          
T        Si     0.916410000000     0.422690000000     0.965350000000     0          
T        Si     0.862170000000     0.465510000000     0.965490000000     0          
T        Si     0.354680000000     0.305880000000     0.187460000000     0          
T        Si     0.423280000000     0.256520000000     0.305360000000     0          
T        Si     0.354410000000     0.305530000000     0.256640000000     0          
T        Si     0.187320000000     0.305330000000     0.423730000000     0          
T        Si     0.306000000000     0.034260000000     0.354910000000     0          
T        Si     0.194620000000     0.075930000000     0.465780000000     0          
T        Si     0.645720000000     0.076590000000     0.250630000000     0          
T        Si     0.645760000000     0.250000000000     0.854240000000     0          
T        Si     0.576570000000     0.250000000000     0.923430000000     0          
T        Si     0.534600000000     0.854110000000     0.583570000000     0          
T        Si     0.534530000000     0.812280000000     0.638780000000     0          
T        Si     0.534470000000     0.742800000000     0.639190000000     0          
T        Si     0.534550000000     0.701250000000     0.583420000000     0          
T        Si     0.534550000000     0.632220000000     0.583460000000     0          
T        Si     0.034650000000     0.577310000000     0.083590000000     0          
T        Si     0.034510000000     0.534490000000     0.137830000000     0          
T        Si     0.812540000000     0.694120000000     0.645320000000     0          
T        Si     0.694640000000     0.743480000000     0.576720000000     0          
T        Si     0.743360000000     0.694470000000     0.645590000000     0          
T        Si     0.576270000000     0.694670000000     0.812680000000     0          
T        Si     0.645090000000     0.965740000000     0.694000000000     0          
T        Si     0.534220000000     0.924070000000     0.805380000000     0          
T        Si     0.749370000000     0.923410000000     0.354280000000     0          
T        Si     0.145760000000     0.750000000000     0.354240000000     0          
T        Si     0.076570000000     0.750000000000     0.423430000000     0          
T        Si     0.145890000000     0.534600000000     0.583570000000     0          
T        Si     0.187720000000     0.534530000000     0.638780000000     0          
T        Si     0.257200000000     0.534470000000     0.639190000000     0          
T        Si     0.298750000000     0.534550000000     0.583420000000     0          
T        Si     0.367780000000     0.534550000000     0.583460000000     0          
T        Si     0.422690000000     0.034650000000     0.083590000000     0          
T        Si     0.465510000000     0.034510000000     0.137830000000     0          
T        Si     0.305880000000     0.812540000000     0.645320000000     0          
T        Si     0.256520000000     0.694640000000     0.576720000000     0          
T        Si     0.305530000000     0.743360000000     0.645590000000     0          
T        Si     0.305330000000     0.576270000000     0.812680000000     0          
T        Si     0.034260000000     0.645090000000     0.694000000000     0          
T        Si     0.075930000000     0.534220000000     0.805380000000     0          
T        Si     0.076590000000     0.749370000000     0.354280000000     0          
T        Si     0.250000000000     0.145760000000     0.354240000000     0          
T        Si     0.250000000000     0.076570000000     0.423430000000     0          
T        Si     0.465400000000     0.145890000000     0.583570000000     0          
T        Si     0.465470000000     0.187720000000     0.638780000000     0          
T        Si     0.465530000000     0.257200000000     0.639190000000     0          
T        Si     0.465450000000     0.298750000000     0.583420000000     0          
T        Si     0.465450000000     0.367780000000     0.583460000000     0          
T        Si     0.965350000000     0.422690000000     0.083590000000     0          
T        Si     0.965490000000     0.465510000000     0.137830000000     0          
T        Si     0.187460000000     0.305880000000     0.645320000000     0          
T        Si     0.305360000000     0.256520000000     0.576720000000     0          
T        Si     0.256640000000     0.305530000000     0.645590000000     0          
T        Si     0.423730000000     0.305330000000     0.812680000000     0          
T        Si     0.354910000000     0.034260000000     0.694000000000     0          
T        Si     0.465780000000     0.075930000000     0.805380000000     0          
T        Si     0.250630000000     0.076590000000     0.354280000000     0          
T        Si     0.854240000000     0.250000000000     0.354240000000     0          
T        Si     0.923430000000     0.250000000000     0.423430000000     0          
T        Si     0.854110000000     0.465400000000     0.583570000000     0          
T        Si     0.812280000000     0.465470000000     0.638780000000     0          
T        Si     0.742800000000     0.465530000000     0.639190000000     0          
T        Si     0.701250000000     0.465450000000     0.583420000000     0          
T        Si     0.632220000000     0.465450000000     0.583460000000     0          
T        Si     0.577310000000     0.965350000000     0.083590000000     0          
T        Si     0.534490000000     0.965490000000     0.137830000000     0          
T        Si     0.694120000000     0.187460000000     0.645320000000     0          
T        Si     0.743480000000     0.305360000000     0.576720000000     0          
T        Si     0.694470000000     0.256640000000     0.645590000000     0          
T        Si     0.694670000000     0.423730000000     0.812680000000     0          
T        Si     0.965740000000     0.354910000000     0.694000000000     0          
T        Si     0.924070000000     0.465780000000     0.805380000000     0          
T        Si     0.923410000000     0.250630000000     0.354280000000     0          
T        Si     0.750000000000     0.854240000000     0.354240000000     0          
T        Si     0.750000000000     0.923430000000     0.423430000000     0          
T        Si     0.534600000000     0.145890000000     0.416430000000     0          
T        Si     0.534530000000     0.187720000000     0.361220000000     0          
T        Si     0.534470000000     0.257200000000     0.360810000000     0          
T        Si     0.534550000000     0.298750000000     0.416580000000     0          
T        Si     0.534550000000     0.367780000000     0.416540000000     0          
T        Si     0.034650000000     0.422690000000     0.916410000000     0          
T        Si     0.034510000000     0.465510000000     0.862170000000     0          
T        Si     0.812540000000     0.305880000000     0.354680000000     0          
T        Si     0.694640000000     0.256520000000     0.423280000000     0          
T        Si     0.743360000000     0.305530000000     0.354410000000     0          
T        Si     0.576270000000     0.305330000000     0.187320000000     0          
T        Si     0.645090000000     0.034260000000     0.306000000000     0          
T        Si     0.534220000000     0.075930000000     0.194620000000     0          
T        Si     0.749370000000     0.076590000000     0.645720000000     0          
T        Si     0.145760000000     0.250000000000     0.645760000000     0          
T        Si     0.076570000000     0.250000000000     0.576570000000     0          
T        Si     0.854110000000     0.534600000000     0.416430000000     0          
T        Si     0.812280000000     0.534530000000     0.361220000000     0          
T        Si     0.742800000000     0.534470000000     0.360810000000     0          
T        Si     0.701250000000     0.534550000000     0.416580000000     0          
T        Si     0.632220000000     0.534550000000     0.416540000000     0          
T        Si     0.577310000000     0.034650000000     0.916410000000     0          
T        Si     0.534490000000     0.034510000000     0.862170000000     0          
T        Si     0.694120000000     0.812540000000     0.354680000000     0          
T        Si     0.743480000000     0.694640000000     0.423280000000     0          
T        Si     0.694470000000     0.743360000000     0.354410000000     0          
T        Si     0.694670000000     0.576270000000     0.187320000000     0          
T        Si     0.965740000000     0.645090000000     0.306000000000     0          
T        Si     0.924070000000     0.534220000000     0.194620000000     0          
T        Si     0.923410000000     0.749370000000     0.645720000000     0          
T        Si     0.750000000000     0.145760000000     0.645760000000     0          
T        Si     0.750000000000     0.076570000000     0.576570000000     0          
T        Si     0.465400000000     0.854110000000     0.416430000000     0          
T        Si     0.465470000000     0.812280000000     0.361220000000     0          
T        Si     0.465530000000     0.742800000000     0.360810000000     0          
T        Si     0.465450000000     0.701250000000     0.416580000000     0          
T        Si     0.465450000000     0.632220000000     0.416540000000     0          
T        Si     0.965350000000     0.577310000000     0.916410000000     0          
T        Si     0.965490000000     0.534490000000     0.862170000000     0          
T        Si     0.187460000000     0.694120000000     0.354680000000     0          
T        Si     0.305360000000     0.743480000000     0.423280000000     0          
T        Si     0.256640000000     0.694470000000     0.354410000000     0          
T        Si     0.423730000000     0.694670000000     0.187320000000     0          
T        Si     0.354910000000     0.965740000000     0.306000000000     0          
T        Si     0.465780000000     0.924070000000     0.194620000000     0          
T        Si     0.250630000000     0.923410000000     0.645720000000     0          
T        Si     0.854240000000     0.750000000000     0.645760000000     0          
T        Si     0.923430000000     0.750000000000     0.576570000000     0          
T        Si     0.145890000000     0.465400000000     0.416430000000     0          
T        Si     0.187720000000     0.465470000000     0.361220000000     0          
T        Si     0.257200000000     0.465530000000     0.360810000000     0          
T        Si     0.298750000000     0.465450000000     0.416580000000     0          
T        Si     0.367780000000     0.465450000000     0.416540000000     0          
T        Si     0.422690000000     0.965350000000     0.916410000000     0          
T        Si     0.465510000000     0.965490000000     0.862170000000     0          
T        Si     0.305880000000     0.187460000000     0.354680000000     0          
T        Si     0.256520000000     0.305360000000     0.423280000000     0          
T        Si     0.305530000000     0.256640000000     0.354410000000     0          
T        Si     0.305330000000     0.423730000000     0.187320000000     0          
T        Si     0.034260000000     0.354910000000     0.306000000000     0          
T        Si     0.075930000000     0.465780000000     0.194620000000     0          
T        Si     0.076590000000     0.250630000000     0.645720000000     0          
T        Si     0.250000000000     0.854240000000     0.645760000000     0          
T        Si     0.250000000000     0.923430000000     0.576570000000     0          
T        Si     0.583570000000     0.534600000000     0.854110000000     0          
T        Si     0.638780000000     0.534530000000     0.812280000000     0          
T        Si     0.639190000000     0.534470000000     0.742800000000     0          
T        Si     0.583420000000     0.534550000000     0.701250000000     0          
T        Si     0.583460000000     0.534550000000     0.632220000000     0          
T        Si     0.083590000000     0.034650000000     0.577310000000     0          
T        Si     0.137830000000     0.034510000000     0.534490000000     0          
T        Si     0.645320000000     0.812540000000     0.694120000000     0          
T        Si     0.576720000000     0.694640000000     0.743480000000     0          
T        Si     0.645590000000     0.743360000000     0.694470000000     0          
T        Si     0.812680000000     0.576270000000     0.694670000000     0          
T        Si     0.694000000000     0.645090000000     0.965740000000     0          
T        Si     0.805380000000     0.534220000000     0.924070000000     0          
T        Si     0.354280000000     0.749370000000     0.923410000000     0          
T        Si     0.354240000000     0.145760000000     0.750000000000     0          
T        Si     0.423430000000     0.076570000000     0.750000000000     0          
T        Si     0.583570000000     0.465400000000     0.145890000000     0          
T        Si     0.638780000000     0.465470000000     0.187720000000     0          
T        Si     0.639190000000     0.465530000000     0.257200000000     0          
T        Si     0.583420000000     0.465450000000     0.298750000000     0          
T        Si     0.583460000000     0.465450000000     0.367780000000     0          
T        Si     0.083590000000     0.965350000000     0.422690000000     0          
T        Si     0.137830000000     0.965490000000     0.465510000000     0          
T        Si     0.645320000000     0.187460000000     0.305880000000     0          
T        Si     0.576720000000     0.305360000000     0.256520000000     0          
T        Si     0.645590000000     0.256640000000     0.305530000000     0          
T        Si     0.812680000000     0.423730000000     0.305330000000     0          
T        Si     0.694000000000     0.354910000000     0.034260000000     0          
T        Si     0.805380000000     0.465780000000     0.075930000000     0          
T        Si     0.354280000000     0.250630000000     0.076590000000     0          
T        Si     0.354240000000     0.854240000000     0.250000000000     0          
T        Si     0.423430000000     0.923430000000     0.250000000000     0          
T        Si     0.534600000000     0.583570000000     0.145890000000     0          
T        Si     0.534530000000     0.638780000000     0.187720000000     0          
T        Si     0.534470000000     0.639190000000     0.257200000000     0          
T        Si     0.534550000000     0.583420000000     0.298750000000     0          
T        Si     0.534550000000     0.583460000000     0.367780000000     0          
T        Si     0.034650000000     0.083590000000     0.422690000000     0          
T        Si     0.034510000000     0.137830000000     0.465510000000     0          
T        Si     0.812540000000     0.645320000000     0.305880000000     0          
T        Si     0.694640000000     0.576720000000     0.256520000000     0          
T        Si     0.743360000000     0.645590000000     0.305530000000     0          
T        Si     0.576270000000     0.812680000000     0.305330000000     0          
T        Si     0.645090000000     0.694000000000     0.034260000000     0          
T        Si     0.534220000000     0.805380000000     0.075930000000     0          
T        Si     0.749370000000     0.354280000000     0.076590000000     0          
T        Si     0.145760000000     0.354240000000     0.250000000000     0          
T        Si     0.076570000000     0.423430000000     0.250000000000     0          
T        Si     0.416430000000     0.534600000000     0.145890000000     0          
T        Si     0.361220000000     0.534530000000     0.187720000000     0          
T        Si     0.360810000000     0.534470000000     0.257200000000     0          
T        Si     0.416580000000     0.534550000000     0.298750000000     0          
T        Si     0.416540000000     0.534550000000     0.367780000000     0          
T        Si     0.916410000000     0.034650000000     0.422690000000     0          
T        Si     0.862170000000     0.034510000000     0.465510000000     0          
T        Si     0.354680000000     0.812540000000     0.305880000000     0          
T        Si     0.423280000000     0.694640000000     0.256520000000     0          
T        Si     0.354410000000     0.743360000000     0.305530000000     0          
T        Si     0.187320000000     0.576270000000     0.305330000000     0          
T        Si     0.306000000000     0.645090000000     0.034260000000     0          
T        Si     0.194620000000     0.534220000000     0.075930000000     0          
T        Si     0.645720000000     0.749370000000     0.076590000000     0          
T        Si     0.645760000000     0.145760000000     0.250000000000     0          
T        Si     0.576570000000     0.076570000000     0.250000000000     0          
T        Si     0.465400000000     0.416430000000     0.145890000000     0          
T        Si     0.465470000000     0.361220000000     0.187720000000     0          
T        Si     0.465530000000     0.360810000000     0.257200000000     0          
T        Si     0.465450000000     0.416580000000     0.298750000000     0          
T        Si     0.465450000000     0.416540000000     0.367780000000     0          
T        Si     0.965350000000     0.916410000000     0.422690000000     0          
T        Si     0.965490000000     0.862170000000     0.465510000000     0          
T        Si     0.187460000000     0.354680000000     0.305880000000     0          
T        Si     0.305360000000     0.423280000000     0.256520000000     0          
T        Si     0.256640000000     0.354410000000     0.305530000000     0          
T        Si     0.423730000000     0.187320000000     0.305330000000     0          
T        Si     0.354910000000     0.306000000000     0.034260000000     0          
T        Si     0.465780000000     0.194620000000     0.075930000000     0          
T        Si     0.250630000000     0.645720000000     0.076590000000     0          
T        Si     0.854240000000     0.645760000000     0.250000000000     0          
T        Si     0.923430000000     0.576570000000     0.250000000000     0          
T        Si     0.416430000000     0.465400000000     0.854110000000     0          
T        Si     0.361220000000     0.465470000000     0.812280000000     0          
T        Si     0.360810000000     0.465530000000     0.742800000000     0          
T        Si     0.416580000000     0.465450000000     0.701250000000     0          
T        Si     0.416540000000     0.465450000000     0.632220000000     0          
T        Si     0.916410000000     0.965350000000     0.577310000000     0          
T        Si     0.862170000000     0.965490000000     0.534490000000     0          
T        Si     0.354680000000     0.187460000000     0.694120000000     0          
T        Si     0.423280000000     0.305360000000     0.743480000000     0          
T        Si     0.354410000000     0.256640000000     0.694470000000     0          
T        Si     0.187320000000     0.423730000000     0.694670000000     0          
T        Si     0.306000000000     0.354910000000     0.965740000000     0          
T        Si     0.194620000000     0.465780000000     0.924070000000     0          
T        Si     0.645720000000     0.250630000000     0.923410000000     0          
T        Si     0.645760000000     0.854240000000     0.750000000000     0          
T        Si     0.576570000000     0.923430000000     0.750000000000     0          
T        Si     0.534600000000     0.416430000000     0.854110000000     0          
T        Si     0.534530000000     0.361220000000     0.812280000000     0          
T        Si     0.534470000000     0.360810000000     0.742800000000     0          
T        Si     0.534550000000     0.416580000000     0.701250000000     0          
T        Si     0.534550000000     0.416540000000     0.632220000000     0          
T        Si     0.034650000000     0.916410000000     0.577310000000     0          
T        Si     0.034510000000     0.862170000000     0.534490000000     0          
T        Si     0.812540000000     0.354680000000     0.694120000000     0          
T        Si     0.694640000000     0.423280000000     0.743480000000     0          
T        Si     0.743360000000     0.354410000000     0.694470000000     0          
T        Si     0.576270000000     0.187320000000     0.694670000000     0          
T        Si     0.645090000000     0.306000000000     0.965740000000     0          
T        Si     0.534220000000     0.194620000000     0.924070000000     0          
T        Si     0.749370000000     0.645720000000     0.923410000000     0          
T        Si     0.145760000000     0.645760000000     0.750000000000     0          
T        Si     0.076570000000     0.576570000000     0.750000000000     0          
T        Si     0.465400000000     0.583570000000     0.854110000000     0          
T        Si     0.465470000000     0.638780000000     0.812280000000     0          
T        Si     0.465530000000     0.639190000000     0.742800000000     0          
T        Si     0.465450000000     0.583420000000     0.701250000000     0          
T        Si     0.465450000000     0.583460000000     0.632220000000     0          
T        Si     0.965350000000     0.083590000000     0.577310000000     0          
T        Si     0.965490000000     0.137830000000     0.534490000000     0          
T        Si     0.187460000000     0.645320000000     0.694120000000     0          
T        Si     0.305360000000     0.576720000000     0.743480000000     0          
T        Si     0.256640000000     0.645590000000     0.694470000000     0          
T        Si     0.423730000000     0.812680000000     0.694670000000     0          
T        Si     0.354910000000     0.694000000000     0.965740000000     0          
T        Si     0.465780000000     0.805380000000     0.924070000000     0          
T        Si     0.250630000000     0.354280000000     0.923410000000     0          
T        Si     0.854240000000     0.354240000000     0.750000000000     0          
T        Si     0.923430000000     0.423430000000     0.750000000000     0          
T        Si     0.145890000000     0.416430000000     0.465400000000     0          
T        Si     0.187720000000     0.361220000000     0.465470000000     0          
T        Si     0.257200000000     0.360810000000     0.465530000000     0          
T        Si     0.298750000000     0.416580000000     0.465450000000     0          
T        Si     0.367780000000     0.416540000000     0.465450000000     0          
T        Si     0.422690000000     0.916410000000     0.965350000000     0          
T        Si     0.465510000000     0.862170000000     0.965490000000     0          
T        Si     0.305880000000     0.354680000000     0.187460000000     0          
T        Si     0.256520000000     0.423280000000     0.305360000000     0          
T        Si     0.305530000000     0.354410000000     0.256640000000     0          
T        Si     0.305330000000     0.187320000000     0.423730000000     0          
T        Si     0.034260000000     0.306000000000     0.354910000000     0          
T        Si     0.075930000000     0.194620000000     0.465780000000     0          
T        Si     0.076590000000     0.645720000000     0.250630000000     0          
T        Si     0.250000000000     0.645760000000     0.854240000000     0          
T        Si     0.250000000000     0.576570000000     0.923430000000     0          
T        Si     0.583570000000     0.145890000000     0.465400000000     0          
T        Si     0.638780000000     0.187720000000     0.465470000000     0          
T        Si     0.639190000000     0.257200000000     0.465530000000     0          
T        Si     0.583420000000     0.298750000000     0.465450000000     0          
T        Si     0.583460000000     0.367780000000     0.465450000000     0          
T        Si     0.083590000000     0.422690000000     0.965350000000     0          
T        Si     0.137830000000     0.465510000000     0.965490000000     0          
T        Si     0.645320000000     0.305880000000     0.187460000000     0          
T        Si     0.576720000000     0.256520000000     0.305360000000     0          
T        Si     0.645590000000     0.305530000000     0.256640000000     0          
T        Si     0.812680000000     0.305330000000     0.423730000000     0          
T        Si     0.694000000000     0.034260000000     0.354910000000     0          
T        Si     0.805380000000     0.075930000000     0.465780000000     0          
T        Si     0.354280000000     0.076590000000     0.250630000000     0          
T        Si     0.354240000000     0.250000000000     0.854240000000     0          
T        Si     0.423430000000     0.250000000000     0.923430000000     0          
T        Si     0.854110000000     0.583570000000     0.465400000000     0          
T        Si     0.812280000000     0.638780000000     0.465470000000     0          
T        Si     0.742800000000     0.639190000000     0.465530000000     0          
T        Si     0.701250000000     0.583420000000     0.465450000000     0          
T        Si     0.632220000000     0.583460000000     0.465450000000     0          
T        Si     0.577310000000     0.083590000000     0.965350000000     0          
T        Si     0.534490000000     0.137830000000     0.965490000000     0          
T        Si     0.694120000000     0.645320000000     0.187460000000     0          
T        Si     0.743480000000     0.576720000000     0.305360000000     0          
T        Si     0.694470000000     0.645590000000     0.256640000000     0          
T        Si     0.694670000000     0.812680000000     0.423730000000     0          
T        Si     0.965740000000     0.694000000000     0.354910000000     0          
T        Si     0.924070000000     0.805380000000     0.465780000000     0          
T        Si     0.923410000000     0.354280000000     0.250630000000     0          
T        Si     0.750000000000     0.354240000000     0.854240000000     0          
T        Si     0.750000000000     0.423430000000     0.923430000000     0          
T        Si     0.416430000000     0.854110000000     0.465400000000     0          
T        Si     0.361220000000     0.812280000000     0.465470000000     0          
T        Si     0.360810000000     0.742800000000     0.465530000000     0          
T        Si     0.416580000000     0.701250000000     0.465450000000     0          
T        Si     0.416540000000     0.632220000000     0.465450000000     0          
T        Si     0.916410000000     0.577310000000     0.965350000000     0          
T        Si     0.862170000000     0.534490000000     0.965490000000     0          
T        Si     0.354680000000     0.694120000000     0.187460000000     0          
T        Si     0.423280000000     0.743480000000     0.305360000000     0          
T        Si     0.354410000000     0.694470000000     0.256640000000     0          
T        Si     0.187320000000     0.694670000000     0.423730000000     0          
T        Si     0.306000000000     0.965740000000     0.354910000000     0          
T        Si     0.194620000000     0.924070000000     0.465780000000     0          
T        Si     0.645720000000     0.923410000000     0.250630000000     0          
T        Si     0.645760000000     0.750000000000     0.854240000000     0          
T        Si     0.576570000000     0.750000000000     0.923430000000     0          
T        Si     0.145890000000     0.583570000000     0.534600000000     0          
T        Si     0.187720000000     0.638780000000     0.534530000000     0          
T        Si     0.257200000000     0.639190000000     0.534470000000     0          
T        Si     0.298750000000     0.583420000000     0.534550000000     0          
T        Si     0.367780000000     0.583460000000     0.534550000000     0          
T        Si     0.422690000000     0.083590000000     0.034650000000     0          
T        Si     0.465510000000     0.137830000000     0.034510000000     0          
T        Si     0.305880000000     0.645320000000     0.812540000000     0          
T        Si     0.256520000000     0.576720000000     0.694640000000     0          
T        Si     0.305530000000     0.645590000000     0.743360000000     0          
T        Si     0.305330000000     0.812680000000     0.576270000000     0          
T        Si     0.034260000000     0.694000000000     0.645090000000     0          
T        Si     0.075930000000     0.805380000000     0.534220000000     0          
T        Si     0.076590000000     0.354280000000     0.749370000000     0          
T        Si     0.250000000000     0.354240000000     0.145760000000     0          
T        Si     0.250000000000     0.423430000000     0.076570000000     0          
T        Si     0.416430000000     0.145890000000     0.534600000000     0          
T        Si     0.361220000000     0.187720000000     0.534530000000     0          
T        Si     0.360810000000     0.257200000000     0.534470000000     0          
T        Si     0.416580000000     0.298750000000     0.534550000000     0          
T        Si     0.416540000000     0.367780000000     0.534550000000     0          
T        Si     0.916410000000     0.422690000000     0.034650000000     0          
T        Si     0.862170000000     0.465510000000     0.034510000000     0          
T        Si     0.354680000000     0.305880000000     0.812540000000     0          
T        Si     0.423280000000     0.256520000000     0.694640000000     0          
T        Si     0.354410000000     0.305530000000     0.743360000000     0          
T        Si     0.187320000000     0.305330000000     0.576270000000     0          
T        Si     0.306000000000     0.034260000000     0.645090000000     0          
T        Si     0.194620000000     0.075930000000     0.534220000000     0          
T        Si     0.645720000000     0.076590000000     0.749370000000     0          
T        Si     0.645760000000     0.250000000000     0.145760000000     0          
T        Si     0.576570000000     0.250000000000     0.076570000000     0          
T        Si     0.854110000000     0.416430000000     0.534600000000     0          
T        Si     0.812280000000     0.361220000000     0.534530000000     0          
T        Si     0.742800000000     0.360810000000     0.534470000000     0          
T        Si     0.701250000000     0.416580000000     0.534550000000     0          
T        Si     0.632220000000     0.416540000000     0.534550000000     0          
T        Si     0.577310000000     0.916410000000     0.034650000000     0          
T        Si     0.534490000000     0.862170000000     0.034510000000     0          
T        Si     0.694120000000     0.354680000000     0.812540000000     0          
T        Si     0.743480000000     0.423280000000     0.694640000000     0          
T        Si     0.694470000000     0.354410000000     0.743360000000     0          
T        Si     0.694670000000     0.187320000000     0.576270000000     0          
T        Si     0.965740000000     0.306000000000     0.645090000000     0          
T        Si     0.924070000000     0.194620000000     0.534220000000     0          
T        Si     0.923410000000     0.645720000000     0.749370000000     0          
T        Si     0.750000000000     0.645760000000     0.145760000000     0          
T        Si     0.750000000000     0.576570000000     0.076570000000     0          
T        Si     0.583570000000     0.854110000000     0.534600000000     0          
T        Si     0.638780000000     0.812280000000     0.534530000000     0          
T        Si     0.639190000000     0.742800000000     0.534470000000     0          
T        Si     0.583420000000     0.701250000000     0.534550000000     0          
T        Si     0.583460000000     0.632220000000     0.534550000000     0          
T        Si     0.083590000000     0.577310000000     0.034650000000     0          
T        Si     0.137830000000     0.534490000000     0.034510000000     0          
T        Si     0.645320000000     0.694120000000     0.812540000000     0          
T        Si     0.576720000000     0.743480000000     0.694640000000     0          
T        Si     0.645590000000     0.694470000000     0.743360000000     0          
T        Si     0.812680000000     0.694670000000     0.576270000000     0          
T        Si     0.694000000000     0.965740000000     0.645090000000     0          
T        Si     0.805380000000     0.924070000000     0.534220000000     0          
T        Si     0.354280000000     0.923410000000     0.749370000000     0          
T        Si     0.354240000000     0.750000000000     0.145760000000     0          
T        Si     0.423430000000     0.750000000000     0.076570000000     0          
T        Si     0.465400000000     0.145890000000     0.416430000000     0          
T        Si     0.465470000000     0.187720000000     0.361220000000     0          
T        Si     0.465530000000     0.257200000000     0.360810000000     0          
T        Si     0.465450000000     0.298750000000     0.416580000000     0          
T        Si     0.465450000000     0.367780000000     0.416540000000     0          
T        Si     0.965350000000     0.422690000000     0.916410000000     0          
T        Si     0.965490000000     0.465510000000     0.862170000000     0          
T        Si     0.187460000000     0.305880000000     0.354680000000     0          
T        Si     0.305360000000     0.256520000000     0.423280000000     0          
T        Si     0.256640000000     0.305530000000     0.354410000000     0          
T        Si     0.423730000000     0.305330000000     0.187320000000     0          
T        Si     0.354910000000     0.034260000000     0.306000000000     0          
T        Si     0.465780000000     0.075930000000     0.194620000000     0          
T        Si     0.250630000000     0.076590000000     0.645720000000     0          
T        Si     0.854240000000     0.250000000000     0.645760000000     0          
T        Si     0.923430000000     0.250000000000     0.576570000000     0          
T        Si     0.854110000000     0.465400000000     0.416430000000     0          
T        Si     0.812280000000     0.465470000000     0.361220000000     0          
T        Si     0.742800000000     0.465530000000     0.360810000000     0          
T        Si     0.701250000000     0.465450000000     0.416580000000     0          
T        Si     0.632220000000     0.465450000000     0.416540000000     0          
T        Si     0.577310000000     0.965350000000     0.916410000000     0          
T        Si     0.534490000000     0.965490000000     0.862170000000     0          
T        Si     0.694120000000     0.187460000000     0.354680000000     0          
T        Si     0.743480000000     0.305360000000     0.423280000000     0          
T        Si     0.694470000000     0.256640000000     0.354410000000     0          
T        Si     0.694670000000     0.423730000000     0.187320000000     0          
T        Si     0.965740000000     0.354910000000     0.306000000000     0          
T        Si     0.924070000000     0.465780000000     0.194620000000     0          
T        Si     0.923410000000     0.250630000000     0.645720000000     0          
T        Si     0.750000000000     0.854240000000     0.645760000000     0          
T        Si     0.750000000000     0.923430000000     0.576570000000     0          
T        Si     0.534600000000     0.854110000000     0.416430000000     0          
T        Si     0.534530000000     0.812280000000     0.361220000000     0          
T        Si     0.534470000000     0.742800000000     0.360810000000     0          
T        Si     0.534550000000     0.701250000000     0.416580000000     0          
T        Si     0.534550000000     0.632220000000     0.416540000000     0          
T        Si     0.034650000000     0.577310000000     0.916410000000     0          
T        Si     0.034510000000     0.534490000000     0.862170000000     0          
T        Si     0.812540000000     0.694120000000     0.354680000000     0          
T        Si     0.694640000000     0.743480000000     0.423280000000     0          
T        Si     0.743360000000     0.694470000000     0.354410000000     0          
T        Si     0.576270000000     0.694670000000     0.187320000000     0          
T        Si     0.645090000000     0.965740000000     0.306000000000     0          
T        Si     0.534220000000     0.924070000000     0.194620000000     0          
T        Si     0.749370000000     0.923410000000     0.645720000000     0          
T        Si     0.145760000000     0.750000000000     0.645760000000     0          
T        Si     0.076570000000     0.750000000000     0.576570000000     0          
T        Si     0.145890000000     0.534600000000     0.416430000000     0          
T        Si     0.187720000000     0.534530000000     0.361220000000     0          
T        Si     0.257200000000     0.534470000000     0.360810000000     0          
T        Si     0.298750000000     0.534550000000     0.416580000000     0          
T        Si     0.367780000000     0.534550000000     0.416540000000     0          
T        Si     0.422690000000     0.034650000000     0.916410000000     0          
T        Si     0.465510000000     0.034510000000     0.862170000000     0          
T        Si     0.305880000000     0.812540000000     0.354680000000     0          
T        Si     0.256520000000     0.694640000000     0.423280000000     0          
T        Si     0.305530000000     0.743360000000     0.354410000000     0          
T        Si     0.305330000000     0.576270000000     0.187320000000     0          
T        Si     0.034260000000     0.645090000000     0.306000000000     0          
T        Si     0.075930000000     0.534220000000     0.194620000000     0          
T        Si     0.076590000000     0.749370000000     0.645720000000     0          
T        Si     0.250000000000     0.145760000000     0.645760000000     0          
T        Si     0.250000000000     0.076570000000     0.576570000000     0          
T        Si     0.465400000000     0.854110000000     0.583570000000     0          
T        Si     0.465470000000     0.812280000000     0.638780000000     0          
T        Si     0.465530000000     0.742800000000     0.639190000000     0          
T        Si     0.465450000000     0.701250000000     0.583420000000     0          
T        Si     0.465450000000     0.632220000000     0.583460000000     0          
T        Si     0.965350000000     0.577310000000     0.083590000000     0          
T        Si     0.965490000000     0.534490000000     0.137830000000     0          
T        Si     0.187460000000     0.694120000000     0.645320000000     0          
T        Si     0.305360000000     0.743480000000     0.576720000000     0          
T        Si     0.256640000000     0.694470000000     0.645590000000     0          
T        Si     0.423730000000     0.694670000000     0.812680000000     0          
T        Si     0.354910000000     0.965740000000     0.694000000000     0          
T        Si     0.465780000000     0.924070000000     0.805380000000     0          
T        Si     0.250630000000     0.923410000000     0.354280000000     0          
T        Si     0.854240000000     0.750000000000     0.354240000000     0          
T        Si     0.923430000000     0.750000000000     0.423430000000     0          
T        Si     0.145890000000     0.465400000000     0.583570000000     0          
T        Si     0.187720000000     0.465470000000     0.638780000000     0          
T        Si     0.257200000000     0.465530000000     0.639190000000     0          
T        Si     0.298750000000     0.465450000000     0.583420000000     0          
T        Si     0.367780000000     0.465450000000     0.583460000000     0          
T        Si     0.422690000000     0.965350000000     0.083590000000     0          
T        Si     0.465510000000     0.965490000000     0.137830000000     0          
T        Si     0.305880000000     0.187460000000     0.645320000000     0          
T        Si     0.256520000000     0.305360000000     0.576720000000     0          
T        Si     0.305530000000     0.256640000000     0.645590000000     0          
T        Si     0.305330000000     0.423730000000     0.812680000000     0          
T        Si     0.034260000000     0.354910000000     0.694000000000     0          
T        Si     0.075930000000     0.465780000000     0.805380000000     0          
T        Si     0.076590000000     0.250630000000     0.354280000000     0          
T        Si     0.250000000000     0.854240000000     0.354240000000     0          
T        Si     0.250000000000     0.923430000000     0.423430000000     0          
T        Si     0.534600000000     0.145890000000     0.583570000000     0          
T        Si     0.534530000000     0.187720000000     0.638780000000     0          
T        Si     0.534470000000     0.257200000000     0.639190000000     0          
T        Si     0.534550000000     0.298750000000     0.583420000000     0          
T        Si     0.534550000000     0.367780000000     0.583460000000     0          
T        Si     0.034650000000     0.422690000000     0.083590000000     0          
T        Si     0.034510000000     0.465510000000     0.137830000000     0          
T        Si     0.812540000000     0.305880000000     0.645320000000     0          
T        Si     0.694640000000     0.256520000000     0.576720000000     0          
T        Si     0.743360000000     0.305530000000     0.645590000000     0          
T        Si     0.576270000000     0.305330000000     0.812680000000     0          
T        Si     0.645090000000     0.034260000000     0.694000000000     0          
T        Si     0.534220000000     0.075930000000     0.805380000000     0          
T        Si     0.749370000000     0.076590000000     0.354280000000     0          
T        Si     0.145760000000     0.250000000000     0.354240000000     0          
T        Si     0.076570000000     0.250000000000     0.423430000000     0          
T        Si     0.854110000000     0.534600000000     0.583570000000     0          
T        Si     0.812280000000     0.534530000000     0.638780000000     0          
T        Si     0.742800000000     0.534470000000     0.639190000000     0          
T        Si     0.701250000000     0.534550000000     0.583420000000     0          
T        Si     0.632220000000     0.534550000000     0.583460000000     0          
T        Si     0.577310000000     0.034650000000     0.083590000000     0          
T        Si     0.534490000000     0.034510000000     0.137830000000     0          
T        Si     0.694120000000     0.812540000000     0.645320000000     0          
T        Si     0.743480000000     0.694640000000     0.576720000000     0          
T        Si     0.694470000000     0.743360000000     0.645590000000     0          
T        Si     0.694670000000     0.576270000000     0.812680000000     0          
T        Si     0.965740000000     0.645090000000     0.694000000000     0          
T        Si     0.924070000000     0.534220000000     0.805380000000     0          
T        Si     0.923410000000     0.749370000000     0.354280000000     0          
T        Si     0.750000000000     0.145760000000     0.354240000000     0          
T        Si     0.750000000000     0.076570000000     0.423430000000     0          
T        Si     0.416430000000     0.465400000000     0.145890000000     0          
T        Si     0.361220000000     0.465470000000     0.187720000000     0          
T        Si     0.360810000000     0.465530000000     0.257200000000     0          
T        Si     0.416580000000     0.465450000000     0.298750000000     0          
T        Si     0.416540000000     0.465450000000     0.367780000000     0          
T        Si     0.916410000000     0.965350000000     0.422690000000     0          
T        Si     0.862170000000     0.965490000000     0.465510000000     0          
T        Si     0.354680000000     0.187460000000     0.305880000000     0          
T        Si     0.423280000000     0.305360000000     0.256520000000     0          
T        Si     0.354410000000     0.256640000000     0.305530000000     0          
T        Si     0.187320000000     0.423730000000     0.305330000000     0          
T        Si     0.306000000000     0.354910000000     0.034260000000     0          
T        Si     0.194620000000     0.465780000000     0.075930000000     0          
T        Si     0.645720000000     0.250630000000     0.076590000000     0          
T        Si     0.645760000000     0.854240000000     0.250000000000     0          
T        Si     0.576570000000     0.923430000000     0.250000000000     0          
T        Si     0.416430000000     0.534600000000     0.854110000000     0          
T        Si     0.361220000000     0.534530000000     0.812280000000     0          
T        Si     0.360810000000     0.534470000000     0.742800000000     0          
T        Si     0.416580000000     0.534550000000     0.701250000000     0          
T        Si     0.416540000000     0.534550000000     0.632220000000     0          
T        Si     0.916410000000     0.034650000000     0.577310000000     0          
T        Si     0.862170000000     0.034510000000     0.534490000000     0          
T        Si     0.354680000000     0.812540000000     0.694120000000     0          
T        Si     0.423280000000     0.694640000000     0.743480000000     0          
T        Si     0.354410000000     0.743360000000     0.694470000000     0          
T        Si     0.187320000000     0.576270000000     0.694670000000     0          
T        Si     0.306000000000     0.645090000000     0.965740000000     0          
T        Si     0.194620000000     0.534220000000     0.924070000000     0          
T        Si     0.645720000000     0.749370000000     0.923410000000     0          
T        Si     0.645760000000     0.145760000000     0.750000000000     0          
T        Si     0.576570000000     0.076570000000     0.750000000000     0          
T        Si     0.465400000000     0.416430000000     0.854110000000     0          
T        Si     0.465470000000     0.361220000000     0.812280000000     0          
T        Si     0.465530000000     0.360810000000     0.742800000000     0          
T        Si     0.465450000000     0.416580000000     0.701250000000     0          
T        Si     0.465450000000     0.416540000000     0.632220000000     0          
T        Si     0.965350000000     0.916410000000     0.577310000000     0          
T        Si     0.965490000000     0.862170000000     0.534490000000     0          
T        Si     0.187460000000     0.354680000000     0.694120000000     0          
T        Si     0.305360000000     0.423280000000     0.743480000000     0          
T        Si     0.256640000000     0.354410000000     0.694470000000     0          
T        Si     0.423730000000     0.187320000000     0.694670000000     0          
T        Si     0.354910000000     0.306000000000     0.965740000000     0          
T        Si     0.465780000000     0.194620000000     0.924070000000     0          
T        Si     0.250630000000     0.645720000000     0.923410000000     0          
T        Si     0.854240000000     0.645760000000     0.750000000000     0          
T        Si     0.923430000000     0.576570000000     0.750000000000     0          
T        Si     0.583570000000     0.465400000000     0.854110000000     0          
T        Si     0.638780000000     0.465470000000     0.812280000000     0          
T        Si     0.639190000000     0.465530000000     0.742800000000     0          
T        Si     0.583420000000     0.465450000000     0.701250000000     0          
T        Si     0.583460000000     0.465450000000     0.632220000000     0          
T        Si     0.083590000000     0.965350000000     0.577310000000     0          
T        Si     0.137830000000     0.965490000000     0.534490000000     0          
T        Si     0.645320000000     0.187460000000     0.694120000000     0          
T        Si     0.576720000000     0.305360000000     0.743480000000     0          
T        Si     0.645590000000     0.256640000000     0.694470000000     0          
T        Si     0.812680000000     0.423730000000     0.694670000000     0          
T        Si     0.694000000000     0.354910000000     0.965740000000     0          
T        Si     0.805380000000     0.465780000000     0.924070000000     0          
T        Si     0.354280000000     0.250630000000     0.923410000000     0          
T        Si     0.354240000000     0.854240000000     0.750000000000     0          
T        Si     0.423430000000     0.923430000000     0.750000000000     0          
T        Si     0.534600000000     0.583570000000     0.854110000000     0          
T        Si     0.534530000000     0.638780000000     0.812280000000     0          
T        Si     0.534470000000     0.639190000000     0.742800000000     0          
T        Si     0.534550000000     0.583420000000     0.701250000000     0          
T        Si     0.534550000000     0.583460000000     0.632220000000     0          
T        Si     0.034650000000     0.083590000000     0.577310000000     0          
T        Si     0.034510000000     0.137830000000     0.534490000000     0          
T        Si     0.812540000000     0.645320000000     0.694120000000     0          
T        Si     0.694640000000     0.576720000000     0.743480000000     0          
T        Si     0.743360000000     0.645590000000     0.694470000000     0          
T        Si     0.576270000000     0.812680000000     0.694670000000     0          
T        Si     0.645090000000     0.694000000000     0.965740000000     0          
T        Si     0.534220000000     0.805380000000     0.924070000000     0          
T        Si     0.749370000000     0.354280000000     0.923410000000     0          
T        Si     0.145760000000     0.354240000000     0.750000000000     0          
T        Si     0.076570000000     0.423430000000     0.750000000000     0          
T        Si     0.583570000000     0.534600000000     0.145890000000     0          
T        Si     0.638780000000     0.534530000000     0.187720000000     0          
T        Si     0.639190000000     0.534470000000     0.257200000000     0          
T        Si     0.583420000000     0.534550000000     0.298750000000     0          
T        Si     0.583460000000     0.534550000000     0.367780000000     0          
T        Si     0.083590000000     0.034650000000     0.422690000000     0          
T        Si     0.137830000000     0.034510000000     0.465510000000     0          
T        Si     0.645320000000     0.812540000000     0.305880000000     0          
T        Si     0.576720000000     0.694640000000     0.256520000000     0          
T        Si     0.645590000000     0.743360000000     0.305530000000     0          
T        Si     0.812680000000     0.576270000000     0.305330000000     0          
T        Si     0.694000000000     0.645090000000     0.034260000000     0          
T        Si     0.805380000000     0.534220000000     0.075930000000     0          
T        Si     0.354280000000     0.749370000000     0.076590000000     0          
T        Si     0.354240000000     0.145760000000     0.250000000000     0          
T        Si     0.423430000000     0.076570000000     0.250000000000     0          
T        Si     0.465400000000     0.583570000000     0.145890000000     0          
T        Si     0.465470000000     0.638780000000     0.187720000000     0          
T        Si     0.465530000000     0.639190000000     0.257200000000     0          
T        Si     0.465450000000     0.583420000000     0.298750000000     0          
T        Si     0.465450000000     0.583460000000     0.367780000000     0          
T        Si     0.965350000000     0.083590000000     0.422690000000     0          
T        Si     0.965490000000     0.137830000000     0.465510000000     0          
T        Si     0.187460000000     0.645320000000     0.305880000000     0          
T        Si     0.305360000000     0.576720000000     0.256520000000     0          
T        Si     0.256640000000     0.645590000000     0.305530000000     0          
T        Si     0.423730000000     0.812680000000     0.305330000000     0          
T        Si     0.354910000000     0.694000000000     0.034260000000     0          
T        Si     0.465780000000     0.805380000000     0.075930000000     0          
T        Si     0.250630000000     0.354280000000     0.076590000000     0          
T        Si     0.854240000000     0.354240000000     0.250000000000     0          
T        Si     0.923430000000     0.423430000000     0.250000000000     0          
T        Si     0.534600000000     0.416430000000     0.145890000000     0          
T        Si     0.534530000000     0.361220000000     0.187720000000     0          
T        Si     0.534470000000     0.360810000000     0.257200000000     0          
T        Si     0.534550000000     0.416580000000     0.298750000000     0          
T        Si     0.534550000000     0.416540000000     0.367780000000     0          
T        Si     0.034650000000     0.916410000000     0.422690000000     0          
T        Si     0.034510000000     0.862170000000     0.465510000000     0          
T        Si     0.812540000000     0.354680000000     0.305880000000     0          
T        Si     0.694640000000     0.423280000000     0.256520000000     0          
T        Si     0.743360000000     0.354410000000     0.305530000000     0          
T        Si     0.576270000000     0.187320000000     0.305330000000     0          
T        Si     0.645090000000     0.306000000000     0.034260000000     0          
T        Si     0.534220000000     0.194620000000     0.075930000000     0          
T        Si     0.749370000000     0.645720000000     0.076590000000     0          
T        Si     0.145760000000     0.645760000000     0.250000000000     0          
T        Si     0.076570000000     0.576570000000     0.250000000000     0          
T        Si     0.354110000000     0.083570000000     0.034600000000     0          
T        Si     0.312280000000     0.138780000000     0.034530000000     0          
T        Si     0.242800000000     0.139190000000     0.034470000000     0          
T        Si     0.201250000000     0.083420000000     0.034550000000     0          
T        Si     0.132220000000     0.083460000000     0.034550000000     0          
T        Si     0.077310000000     0.583590000000     0.534650000000     0          
T        Si     0.034490000000     0.637830000000     0.534510000000     0          
T        Si     0.194120000000     0.145320000000     0.312540000000     0          
T        Si     0.243480000000     0.076720000000     0.194640000000     0          
T        Si     0.194470000000     0.145590000000     0.243360000000     0          
T        Si     0.194670000000     0.312680000000     0.076270000000     0          
T        Si     0.465740000000     0.194000000000     0.145090000000     0          
T        Si     0.424070000000     0.305380000000     0.034220000000     0          
T        Si     0.423410000000     0.854280000000     0.249370000000     0          
T        Si     0.916430000000     0.354110000000     0.034600000000     0          
T        Si     0.861220000000     0.312280000000     0.034530000000     0          
T        Si     0.860810000000     0.242800000000     0.034470000000     0          
T        Si     0.916580000000     0.201250000000     0.034550000000     0          
T        Si     0.916540000000     0.132220000000     0.034550000000     0          
T        Si     0.416410000000     0.077310000000     0.534650000000     0          
T        Si     0.362170000000     0.034490000000     0.534510000000     0          
T        Si     0.854680000000     0.194120000000     0.312540000000     0          
T        Si     0.923280000000     0.243480000000     0.194640000000     0          
T        Si     0.854410000000     0.194470000000     0.243360000000     0          
T        Si     0.687320000000     0.194670000000     0.076270000000     0          
T        Si     0.806000000000     0.465740000000     0.145090000000     0          
T        Si     0.694620000000     0.424070000000     0.034220000000     0          
T        Si     0.145720000000     0.423410000000     0.249370000000     0          
T        Si     0.645890000000     0.916430000000     0.034600000000     0          
T        Si     0.687720000000     0.861220000000     0.034530000000     0          
T        Si     0.757200000000     0.860810000000     0.034470000000     0          
T        Si     0.798750000000     0.916580000000     0.034550000000     0          
T        Si     0.867780000000     0.916540000000     0.034550000000     0          
T        Si     0.922690000000     0.416410000000     0.534650000000     0          
T        Si     0.965510000000     0.362170000000     0.534510000000     0          
T        Si     0.805880000000     0.854680000000     0.312540000000     0          
T        Si     0.756520000000     0.923280000000     0.194640000000     0          
T        Si     0.805530000000     0.854410000000     0.243360000000     0          
T        Si     0.805330000000     0.687320000000     0.076270000000     0          
T        Si     0.534260000000     0.806000000000     0.145090000000     0          
T        Si     0.575930000000     0.694620000000     0.034220000000     0          
T        Si     0.576590000000     0.145720000000     0.249370000000     0          
T        Si     0.083570000000     0.645890000000     0.034600000000     0          
T        Si     0.138780000000     0.687720000000     0.034530000000     0          
T        Si     0.139190000000     0.757200000000     0.034470000000     0          
T        Si     0.083420000000     0.798750000000     0.034550000000     0          
T        Si     0.083460000000     0.867780000000     0.034550000000     0          
T        Si     0.583590000000     0.922690000000     0.534650000000     0          
T        Si     0.637830000000     0.965510000000     0.534510000000     0          
T        Si     0.145320000000     0.805880000000     0.312540000000     0          
T        Si     0.076720000000     0.756520000000     0.194640000000     0          
T        Si     0.145590000000     0.805530000000     0.243360000000     0          
T        Si     0.312680000000     0.805330000000     0.076270000000     0          
T        Si     0.194000000000     0.534260000000     0.145090000000     0          
T        Si     0.305380000000     0.575930000000     0.034220000000     0          
T        Si     0.854280000000     0.576590000000     0.249370000000     0          
T        Si     0.354110000000     0.916430000000     0.965400000000     0          
T        Si     0.312280000000     0.861220000000     0.965470000000     0          
T        Si     0.242800000000     0.860810000000     0.965530000000     0          
T        Si     0.201250000000     0.916580000000     0.965450000000     0          
T        Si     0.132220000000     0.916540000000     0.965450000000     0          
T        Si     0.077310000000     0.416410000000     0.465350000000     0          
T        Si     0.034490000000     0.362170000000     0.465490000000     0          
T        Si     0.194120000000     0.854680000000     0.687460000000     0          
T        Si     0.243480000000     0.923280000000     0.805360000000     0          
T        Si     0.194470000000     0.854410000000     0.756640000000     0          
T        Si     0.194670000000     0.687320000000     0.923730000000     0          
T        Si     0.465740000000     0.806000000000     0.854910000000     0          
T        Si     0.424070000000     0.694620000000     0.965780000000     0          
T        Si     0.423410000000     0.145720000000     0.750630000000     0          
T        Si     0.083570000000     0.354110000000     0.965400000000     0          
T        Si     0.138780000000     0.312280000000     0.965470000000     0          
T        Si     0.139190000000     0.242800000000     0.965530000000     0          
T        Si     0.083420000000     0.201250000000     0.965450000000     0          
T        Si     0.083460000000     0.132220000000     0.965450000000     0          
T        Si     0.583590000000     0.077310000000     0.465350000000     0          
T        Si     0.637830000000     0.034490000000     0.465490000000     0          
T        Si     0.145320000000     0.194120000000     0.687460000000     0          
T        Si     0.076720000000     0.243480000000     0.805360000000     0          
T        Si     0.145590000000     0.194470000000     0.756640000000     0          
T        Si     0.312680000000     0.194670000000     0.923730000000     0          
T        Si     0.194000000000     0.465740000000     0.854910000000     0          
T        Si     0.305380000000     0.424070000000     0.965780000000     0          
T        Si     0.854280000000     0.423410000000     0.750630000000     0          
T        Si     0.645890000000     0.083570000000     0.965400000000     0          
T        Si     0.687720000000     0.138780000000     0.965470000000     0          
T        Si     0.757200000000     0.139190000000     0.965530000000     0          
T        Si     0.798750000000     0.083420000000     0.965450000000     0          
T        Si     0.867780000000     0.083460000000     0.965450000000     0          
T        Si     0.922690000000     0.583590000000     0.465350000000     0          
T        Si     0.965510000000     0.637830000000     0.465490000000     0          
T        Si     0.805880000000     0.145320000000     0.687460000000     0          
T        Si     0.756520000000     0.076720000000     0.805360000000     0          
T        Si     0.805530000000     0.145590000000     0.756640000000     0          
T        Si     0.805330000000     0.312680000000     0.923730000000     0          
T        Si     0.534260000000     0.194000000000     0.854910000000     0          
T        Si     0.575930000000     0.305380000000     0.965780000000     0          
T        Si     0.576590000000     0.854280000000     0.750630000000     0          
T        Si     0.916430000000     0.645890000000     0.965400000000     0          
T        Si     0.861220000000     0.687720000000     0.965470000000     0          
T        Si     0.860810000000     0.757200000000     0.965530000000     0          
T        Si     0.916580000000     0.798750000000     0.965450000000     0          
T        Si     0.916540000000     0.867780000000     0.965450000000     0          
T        Si     0.416410000000     0.922690000000     0.465350000000     0          
T        Si     0.362170000000     0.965510000000     0.465490000000     0          
T        Si     0.854680000000     0.805880000000     0.687460000000     0          
T        Si     0.923280000000     0.756520000000     0.805360000000     0          
T        Si     0.854410000000     0.805530000000     0.756640000000     0          
T        Si     0.687320000000     0.805330000000     0.923730000000     0          
T        Si     0.806000000000     0.534260000000     0.854910000000     0          
T        Si     0.694620000000     0.575930000000     0.965780000000     0          
T        Si     0.145720000000     0.576590000000     0.750630000000     0          
T        Si     0.034600000000     0.354110000000     0.083570000000     0          
T        Si     0.034530000000     0.312280000000     0.138780000000     0          
T        Si     0.034470000000     0.242800000000     0.139190000000     0          
T        Si     0.034550000000     0.201250000000     0.083420000000     0          
T        Si     0.034550000000     0.132220000000     0.083460000000     0          
T        Si     0.534650000000     0.077310000000     0.583590000000     0          
T        Si     0.534510000000     0.034490000000     0.637830000000     0          
T        Si     0.312540000000     0.194120000000     0.145320000000     0          
T        Si     0.194640000000     0.243480000000     0.076720000000     0          
T        Si     0.243360000000     0.194470000000     0.145590000000     0          
T        Si     0.076270000000     0.194670000000     0.312680000000     0          
T        Si     0.145090000000     0.465740000000     0.194000000000     0          
T        Si     0.034220000000     0.424070000000     0.305380000000     0          
T        Si     0.249370000000     0.423410000000     0.854280000000     0          
T        Si     0.645890000000     0.034600000000     0.083570000000     0          
T        Si     0.687720000000     0.034530000000     0.138780000000     0          
T        Si     0.757200000000     0.034470000000     0.139190000000     0          
T        Si     0.798750000000     0.034550000000     0.083420000000     0          
T        Si     0.867780000000     0.034550000000     0.083460000000     0          
T        Si     0.922690000000     0.534650000000     0.583590000000     0          
T        Si     0.965510000000     0.534510000000     0.637830000000     0          
T        Si     0.805880000000     0.312540000000     0.145320000000     0          
T        Si     0.756520000000     0.194640000000     0.076720000000     0          
T        Si     0.805530000000     0.243360000000     0.145590000000     0          
T        Si     0.805330000000     0.076270000000     0.312680000000     0          
T        Si     0.534260000000     0.145090000000     0.194000000000     0          
T        Si     0.575930000000     0.034220000000     0.305380000000     0          
T        Si     0.576590000000     0.249370000000     0.854280000000     0          
T        Si     0.965400000000     0.645890000000     0.083570000000     0          
T        Si     0.965470000000     0.687720000000     0.138780000000     0          
T        Si     0.965530000000     0.757200000000     0.139190000000     0          
T        Si     0.965450000000     0.798750000000     0.083420000000     0          
T        Si     0.965450000000     0.867780000000     0.083460000000     0          
T        Si     0.465350000000     0.922690000000     0.583590000000     0          
T        Si     0.465490000000     0.965510000000     0.637830000000     0          
T        Si     0.687460000000     0.805880000000     0.145320000000     0          
T        Si     0.805360000000     0.756520000000     0.076720000000     0          
T        Si     0.756640000000     0.805530000000     0.145590000000     0          
T        Si     0.923730000000     0.805330000000     0.312680000000     0          
T        Si     0.854910000000     0.534260000000     0.194000000000     0          
T        Si     0.965780000000     0.575930000000     0.305380000000     0          
T        Si     0.750630000000     0.576590000000     0.854280000000     0          
T        Si     0.354110000000     0.965400000000     0.083570000000     0          
T        Si     0.312280000000     0.965470000000     0.138780000000     0          
T        Si     0.242800000000     0.965530000000     0.139190000000     0          
T        Si     0.201250000000     0.965450000000     0.083420000000     0          
T        Si     0.132220000000     0.965450000000     0.083460000000     0          
T        Si     0.077310000000     0.465350000000     0.583590000000     0          
T        Si     0.034490000000     0.465490000000     0.637830000000     0          
T        Si     0.194120000000     0.687460000000     0.145320000000     0          
T        Si     0.243480000000     0.805360000000     0.076720000000     0          
T        Si     0.194470000000     0.756640000000     0.145590000000     0          
T        Si     0.194670000000     0.923730000000     0.312680000000     0          
T        Si     0.465740000000     0.854910000000     0.194000000000     0          
T        Si     0.424070000000     0.965780000000     0.305380000000     0          
T        Si     0.423410000000     0.750630000000     0.854280000000     0          
T        Si     0.034600000000     0.645890000000     0.916430000000     0          
T        Si     0.034530000000     0.687720000000     0.861220000000     0          
T        Si     0.034470000000     0.757200000000     0.860810000000     0          
T        Si     0.034550000000     0.798750000000     0.916580000000     0          
T        Si     0.034550000000     0.867780000000     0.916540000000     0          
T        Si     0.534650000000     0.922690000000     0.416410000000     0          
T        Si     0.534510000000     0.965510000000     0.362170000000     0          
T        Si     0.312540000000     0.805880000000     0.854680000000     0          
T        Si     0.194640000000     0.756520000000     0.923280000000     0          
T        Si     0.243360000000     0.805530000000     0.854410000000     0          
T        Si     0.076270000000     0.805330000000     0.687320000000     0          
T        Si     0.145090000000     0.534260000000     0.806000000000     0          
T        Si     0.034220000000     0.575930000000     0.694620000000     0          
T        Si     0.249370000000     0.576590000000     0.145720000000     0          
T        Si     0.354110000000     0.034600000000     0.916430000000     0          
T        Si     0.312280000000     0.034530000000     0.861220000000     0          
T        Si     0.242800000000     0.034470000000     0.860810000000     0          
T        Si     0.201250000000     0.034550000000     0.916580000000     0          
T        Si     0.132220000000     0.034550000000     0.916540000000     0          
T        Si     0.077310000000     0.534650000000     0.416410000000     0          
T        Si     0.034490000000     0.534510000000     0.362170000000     0          
T        Si     0.194120000000     0.312540000000     0.854680000000     0          
T        Si     0.243480000000     0.194640000000     0.923280000000     0          
T        Si     0.194470000000     0.243360000000     0.854410000000     0          
T        Si     0.194670000000     0.076270000000     0.687320000000     0          
T        Si     0.465740000000     0.145090000000     0.806000000000     0          
T        Si     0.424070000000     0.034220000000     0.694620000000     0          
T        Si     0.423410000000     0.249370000000     0.145720000000     0          
T        Si     0.965400000000     0.354110000000     0.916430000000     0          
T        Si     0.965470000000     0.312280000000     0.861220000000     0          
T        Si     0.965530000000     0.242800000000     0.860810000000     0          
T        Si     0.965450000000     0.201250000000     0.916580000000     0          
T        Si     0.965450000000     0.132220000000     0.916540000000     0          
T        Si     0.465350000000     0.077310000000     0.416410000000     0          
T        Si     0.465490000000     0.034490000000     0.362170000000     0          
T        Si     0.687460000000     0.194120000000     0.854680000000     0          
T        Si     0.805360000000     0.243480000000     0.923280000000     0          
T        Si     0.756640000000     0.194470000000     0.854410000000     0          
T        Si     0.923730000000     0.194670000000     0.687320000000     0          
T        Si     0.854910000000     0.465740000000     0.806000000000     0          
T        Si     0.965780000000     0.424070000000     0.694620000000     0          
T        Si     0.750630000000     0.423410000000     0.145720000000     0          
T        Si     0.645890000000     0.965400000000     0.916430000000     0          
T        Si     0.687720000000     0.965470000000     0.861220000000     0          
T        Si     0.757200000000     0.965530000000     0.860810000000     0          
T        Si     0.798750000000     0.965450000000     0.916580000000     0          
T        Si     0.867780000000     0.965450000000     0.916540000000     0          
T        Si     0.922690000000     0.465350000000     0.416410000000     0          
T        Si     0.965510000000     0.465490000000     0.362170000000     0          
T        Si     0.805880000000     0.687460000000     0.854680000000     0          
T        Si     0.756520000000     0.805360000000     0.923280000000     0          
T        Si     0.805530000000     0.756640000000     0.854410000000     0          
T        Si     0.805330000000     0.923730000000     0.687320000000     0          
T        Si     0.534260000000     0.854910000000     0.806000000000     0          
T        Si     0.575930000000     0.965780000000     0.694620000000     0          
T        Si     0.576590000000     0.750630000000     0.145720000000     0          
T        Si     0.083570000000     0.034600000000     0.354110000000     0          
T        Si     0.138780000000     0.034530000000     0.312280000000     0          
T        Si     0.139190000000     0.034470000000     0.242800000000     0          
T        Si     0.083420000000     0.034550000000     0.201250000000     0          
T        Si     0.083460000000     0.034550000000     0.132220000000     0          
T        Si     0.583590000000     0.534650000000     0.077310000000     0          
T        Si     0.637830000000     0.534510000000     0.034490000000     0          
T        Si     0.145320000000     0.312540000000     0.194120000000     0          
T        Si     0.076720000000     0.194640000000     0.243480000000     0          
T        Si     0.145590000000     0.243360000000     0.194470000000     0          
T        Si     0.312680000000     0.076270000000     0.194670000000     0          
T        Si     0.194000000000     0.145090000000     0.465740000000     0          
T        Si     0.305380000000     0.034220000000     0.424070000000     0          
T        Si     0.854280000000     0.249370000000     0.423410000000     0          
T        Si     0.083570000000     0.965400000000     0.645890000000     0          
T        Si     0.138780000000     0.965470000000     0.687720000000     0          
T        Si     0.139190000000     0.965530000000     0.757200000000     0          
T        Si     0.083420000000     0.965450000000     0.798750000000     0          
T        Si     0.083460000000     0.965450000000     0.867780000000     0          
T        Si     0.583590000000     0.465350000000     0.922690000000     0          
T        Si     0.637830000000     0.465490000000     0.965510000000     0          
T        Si     0.145320000000     0.687460000000     0.805880000000     0          
T        Si     0.076720000000     0.805360000000     0.756520000000     0          
T        Si     0.145590000000     0.756640000000     0.805530000000     0          
T        Si     0.312680000000     0.923730000000     0.805330000000     0          
T        Si     0.194000000000     0.854910000000     0.534260000000     0          
T        Si     0.305380000000     0.965780000000     0.575930000000     0          
T        Si     0.854280000000     0.750630000000     0.576590000000     0          
T        Si     0.034600000000     0.083570000000     0.645890000000     0          
T        Si     0.034530000000     0.138780000000     0.687720000000     0          
T        Si     0.034470000000     0.139190000000     0.757200000000     0          
T        Si     0.034550000000     0.083420000000     0.798750000000     0          
T        Si     0.034550000000     0.083460000000     0.867780000000     0          
T        Si     0.534650000000     0.583590000000     0.922690000000     0          
T        Si     0.534510000000     0.637830000000     0.965510000000     0          
T        Si     0.312540000000     0.145320000000     0.805880000000     0          
T        Si     0.194640000000     0.076720000000     0.756520000000     0          
T        Si     0.243360000000     0.145590000000     0.805530000000     0          
T        Si     0.076270000000     0.312680000000     0.805330000000     0          
T        Si     0.145090000000     0.194000000000     0.534260000000     0          
T        Si     0.034220000000     0.305380000000     0.575930000000     0          
T        Si     0.249370000000     0.854280000000     0.576590000000     0          
T        Si     0.916430000000     0.034600000000     0.645890000000     0          
T        Si     0.861220000000     0.034530000000     0.687720000000     0          
T        Si     0.860810000000     0.034470000000     0.757200000000     0          
T        Si     0.916580000000     0.034550000000     0.798750000000     0          
T        Si     0.916540000000     0.034550000000     0.867780000000     0          
T        Si     0.416410000000     0.534650000000     0.922690000000     0          
T        Si     0.362170000000     0.534510000000     0.965510000000     0          
T        Si     0.854680000000     0.312540000000     0.805880000000     0          
T        Si     0.923280000000     0.194640000000     0.756520000000     0          
T        Si     0.854410000000     0.243360000000     0.805530000000     0          
T        Si     0.687320000000     0.076270000000     0.805330000000     0          
T        Si     0.806000000000     0.145090000000     0.534260000000     0          
T        Si     0.694620000000     0.034220000000     0.575930000000     0          
T        Si     0.145720000000     0.249370000000     0.576590000000     0          
T        Si     0.965400000000     0.916430000000     0.645890000000     0          
T        Si     0.965470000000     0.861220000000     0.687720000000     0          
T        Si     0.965530000000     0.860810000000     0.757200000000     0          
T        Si     0.965450000000     0.916580000000     0.798750000000     0          
T        Si     0.965450000000     0.916540000000     0.867780000000     0          
T        Si     0.465350000000     0.416410000000     0.922690000000     0          
T        Si     0.465490000000     0.362170000000     0.965510000000     0          
T        Si     0.687460000000     0.854680000000     0.805880000000     0          
T        Si     0.805360000000     0.923280000000     0.756520000000     0          
T        Si     0.756640000000     0.854410000000     0.805530000000     0          
T        Si     0.923730000000     0.687320000000     0.805330000000     0          
T        Si     0.854910000000     0.806000000000     0.534260000000     0          
T        Si     0.965780000000     0.694620000000     0.575930000000     0          
T        Si     0.750630000000     0.145720000000     0.576590000000     0          
T        Si     0.916430000000     0.965400000000     0.354110000000     0          
T        Si     0.861220000000     0.965470000000     0.312280000000     0          
T        Si     0.860810000000     0.965530000000     0.242800000000     0          
T        Si     0.916580000000     0.965450000000     0.201250000000     0          
T        Si     0.916540000000     0.965450000000     0.132220000000     0          
T        Si     0.416410000000     0.465350000000     0.077310000000     0          
T        Si     0.362170000000     0.465490000000     0.034490000000     0          
T        Si     0.854680000000     0.687460000000     0.194120000000     0          
T        Si     0.923280000000     0.805360000000     0.243480000000     0          
T        Si     0.854410000000     0.756640000000     0.194470000000     0          
T        Si     0.687320000000     0.923730000000     0.194670000000     0          
T        Si     0.806000000000     0.854910000000     0.465740000000     0          
T        Si     0.694620000000     0.965780000000     0.424070000000     0          
T        Si     0.145720000000     0.750630000000     0.423410000000     0          
T        Si     0.034600000000     0.916430000000     0.354110000000     0          
T        Si     0.034530000000     0.861220000000     0.312280000000     0          
T        Si     0.034470000000     0.860810000000     0.242800000000     0          
T        Si     0.034550000000     0.916580000000     0.201250000000     0          
T        Si     0.034550000000     0.916540000000     0.132220000000     0          
T        Si     0.534650000000     0.416410000000     0.077310000000     0          
T        Si     0.534510000000     0.362170000000     0.034490000000     0          
T        Si     0.312540000000     0.854680000000     0.194120000000     0          
T        Si     0.194640000000     0.923280000000     0.243480000000     0          
T        Si     0.243360000000     0.854410000000     0.194470000000     0          
T        Si     0.076270000000     0.687320000000     0.194670000000     0          
T        Si     0.145090000000     0.806000000000     0.465740000000     0          
T        Si     0.034220000000     0.694620000000     0.424070000000     0          
T        Si     0.249370000000     0.145720000000     0.423410000000     0          
T        Si     0.965400000000     0.083570000000     0.354110000000     0          
T        Si     0.965470000000     0.138780000000     0.312280000000     0          
T        Si     0.965530000000     0.139190000000     0.242800000000     0          
T        Si     0.965450000000     0.083420000000     0.201250000000     0          
T        Si     0.965450000000     0.083460000000     0.132220000000     0          
T        Si     0.465350000000     0.583590000000     0.077310000000     0          
T        Si     0.465490000000     0.637830000000     0.034490000000     0          
T        Si     0.687460000000     0.145320000000     0.194120000000     0          
T        Si     0.805360000000     0.076720000000     0.243480000000     0          
T        Si     0.756640000000     0.145590000000     0.194470000000     0          
T        Si     0.923730000000     0.312680000000     0.194670000000     0          
T        Si     0.854910000000     0.194000000000     0.465740000000     0          
T        Si     0.965780000000     0.305380000000     0.424070000000     0          
T        Si     0.750630000000     0.854280000000     0.423410000000     0          
T        Si     0.645890000000     0.916430000000     0.965400000000     0          
T        Si     0.687720000000     0.861220000000     0.965470000000     0          
T        Si     0.757200000000     0.860810000000     0.965530000000     0          
T        Si     0.798750000000     0.916580000000     0.965450000000     0          
T        Si     0.867780000000     0.916540000000     0.965450000000     0          
T        Si     0.922690000000     0.416410000000     0.465350000000     0          
T        Si     0.965510000000     0.362170000000     0.465490000000     0          
T        Si     0.805880000000     0.854680000000     0.687460000000     0          
T        Si     0.756520000000     0.923280000000     0.805360000000     0          
T        Si     0.805530000000     0.854410000000     0.756640000000     0          
T        Si     0.805330000000     0.687320000000     0.923730000000     0          
T        Si     0.534260000000     0.806000000000     0.854910000000     0          
T        Si     0.575930000000     0.694620000000     0.965780000000     0          
T        Si     0.576590000000     0.145720000000     0.750630000000     0          
T        Si     0.083570000000     0.645890000000     0.965400000000     0          
T        Si     0.138780000000     0.687720000000     0.965470000000     0          
T        Si     0.139190000000     0.757200000000     0.965530000000     0          
T        Si     0.083420000000     0.798750000000     0.965450000000     0          
T        Si     0.083460000000     0.867780000000     0.965450000000     0          
T        Si     0.583590000000     0.922690000000     0.465350000000     0          
T        Si     0.637830000000     0.965510000000     0.465490000000     0          
T        Si     0.145320000000     0.805880000000     0.687460000000     0          
T        Si     0.076720000000     0.756520000000     0.805360000000     0          
T        Si     0.145590000000     0.805530000000     0.756640000000     0          
T        Si     0.312680000000     0.805330000000     0.923730000000     0          
T        Si     0.194000000000     0.534260000000     0.854910000000     0          
T        Si     0.305380000000     0.575930000000     0.965780000000     0          
T        Si     0.854280000000     0.576590000000     0.750630000000     0          
T        Si     0.354110000000     0.083570000000     0.965400000000     0          
T        Si     0.312280000000     0.138780000000     0.965470000000     0          
T        Si     0.242800000000     0.139190000000     0.965530000000     0          
T        Si     0.201250000000     0.083420000000     0.965450000000     0          
T        Si     0.132220000000     0.083460000000     0.965450000000     0          
T        Si     0.077310000000     0.583590000000     0.465350000000     0          
T        Si     0.034490000000     0.637830000000     0.465490000000     0          
T        Si     0.194120000000     0.145320000000     0.687460000000     0          
T        Si     0.243480000000     0.076720000000     0.805360000000     0          
T        Si     0.194470000000     0.145590000000     0.756640000000     0          
T        Si     0.194670000000     0.312680000000     0.923730000000     0          
T        Si     0.465740000000     0.194000000000     0.854910000000     0          
T        Si     0.424070000000     0.305380000000     0.965780000000     0          
T        Si     0.423410000000     0.854280000000     0.750630000000     0          
T        Si     0.916430000000     0.354110000000     0.965400000000     0          
T        Si     0.861220000000     0.312280000000     0.965470000000     0          
T        Si     0.860810000000     0.242800000000     0.965530000000     0          
T        Si     0.916580000000     0.201250000000     0.965450000000     0          
T        Si     0.916540000000     0.132220000000     0.965450000000     0          
T        Si     0.416410000000     0.077310000000     0.465350000000     0          
T        Si     0.362170000000     0.034490000000     0.465490000000     0          
T        Si     0.854680000000     0.194120000000     0.687460000000     0          
T        Si     0.923280000000     0.243480000000     0.805360000000     0          
T        Si     0.854410000000     0.194470000000     0.756640000000     0          
T        Si     0.687320000000     0.194670000000     0.923730000000     0          
T        Si     0.806000000000     0.465740000000     0.854910000000     0          
T        Si     0.694620000000     0.424070000000     0.965780000000     0          
T        Si     0.145720000000     0.423410000000     0.750630000000     0          
T        Si     0.645890000000     0.083570000000     0.034600000000     0          
T        Si     0.687720000000     0.138780000000     0.034530000000     0          
T        Si     0.757200000000     0.139190000000     0.034470000000     0          
T        Si     0.798750000000     0.083420000000     0.034550000000     0          
T        Si     0.867780000000     0.083460000000     0.034550000000     0          
T        Si     0.922690000000     0.583590000000     0.534650000000     0          
T        Si     0.965510000000     0.637830000000     0.534510000000     0          
T        Si     0.805880000000     0.145320000000     0.312540000000     0          
T        Si     0.756520000000     0.076720000000     0.194640000000     0          
T        Si     0.805530000000     0.145590000000     0.243360000000     0          
T        Si     0.805330000000     0.312680000000     0.076270000000     0          
T        Si     0.534260000000     0.194000000000     0.145090000000     0          
T        Si     0.575930000000     0.305380000000     0.034220000000     0          
T        Si     0.576590000000     0.854280000000     0.249370000000     0          
T        Si     0.916430000000     0.645890000000     0.034600000000     0          
T        Si     0.861220000000     0.687720000000     0.034530000000     0          
T        Si     0.860810000000     0.757200000000     0.034470000000     0          
T        Si     0.916580000000     0.798750000000     0.034550000000     0          
T        Si     0.916540000000     0.867780000000     0.034550000000     0          
T        Si     0.416410000000     0.922690000000     0.534650000000     0          
T        Si     0.362170000000     0.965510000000     0.534510000000     0          
T        Si     0.854680000000     0.805880000000     0.312540000000     0          
T        Si     0.923280000000     0.756520000000     0.194640000000     0          
T        Si     0.854410000000     0.805530000000     0.243360000000     0          
T        Si     0.687320000000     0.805330000000     0.076270000000     0          
T        Si     0.806000000000     0.534260000000     0.145090000000     0          
T        Si     0.694620000000     0.575930000000     0.034220000000     0          
T        Si     0.145720000000     0.576590000000     0.249370000000     0          
T        Si     0.354110000000     0.916430000000     0.034600000000     0          
T        Si     0.312280000000     0.861220000000     0.034530000000     0          
T        Si     0.242800000000     0.860810000000     0.034470000000     0          
T        Si     0.201250000000     0.916580000000     0.034550000000     0          
T        Si     0.132220000000     0.916540000000     0.034550000000     0          
T        Si     0.077310000000     0.416410000000     0.534650000000     0          
T        Si     0.034490000000     0.362170000000     0.534510000000     0          
T        Si     0.194120000000     0.854680000000     0.312540000000     0          
T        Si     0.243480000000     0.923280000000     0.194640000000     0          
T        Si     0.194470000000     0.854410000000     0.243360000000     0          
T        Si     0.194670000000     0.687320000000     0.076270000000     0          
T        Si     0.465740000000     0.806000000000     0.145090000000     0          
T        Si     0.424070000000     0.694620000000     0.034220000000     0          
T        Si     0.423410000000     0.145720000000     0.249370000000     0          
T        Si     0.083570000000     0.354110000000     0.034600000000     0          
T        Si     0.138780000000     0.312280000000     0.034530000000     0          
T        Si     0.139190000000     0.242800000000     0.034470000000     0          
T        Si     0.083420000000     0.201250000000     0.034550000000     0          
T        Si     0.083460000000     0.132220000000     0.034550000000     0          
T        Si     0.583590000000     0.077310000000     0.534650000000     0          
T        Si     0.637830000000     0.034490000000     0.534510000000     0          
T        Si     0.145320000000     0.194120000000     0.312540000000     0          
T        Si     0.076720000000     0.243480000000     0.194640000000     0          
T        Si     0.145590000000     0.194470000000     0.243360000000     0          
T        Si     0.312680000000     0.194670000000     0.076270000000     0          
T        Si     0.194000000000     0.465740000000     0.145090000000     0          
T        Si     0.305380000000     0.424070000000     0.034220000000     0          
T        Si     0.854280000000     0.423410000000     0.249370000000     0          
T        Si     0.965400000000     0.645890000000     0.916430000000     0          
T        Si     0.965470000000     0.687720000000     0.861220000000     0          
T        Si     0.965530000000     0.757200000000     0.860810000000     0          
T        Si     0.965450000000     0.798750000000     0.916580000000     0          
T        Si     0.965450000000     0.867780000000     0.916540000000     0          
T        Si     0.465350000000     0.922690000000     0.416410000000     0          
T        Si     0.465490000000     0.965510000000     0.362170000000     0          
T        Si     0.687460000000     0.805880000000     0.854680000000     0          
T        Si     0.805360000000     0.756520000000     0.923280000000     0          
T        Si     0.756640000000     0.805530000000     0.854410000000     0          
T        Si     0.923730000000     0.805330000000     0.687320000000     0          
T        Si     0.854910000000     0.534260000000     0.806000000000     0          
T        Si     0.965780000000     0.575930000000     0.694620000000     0          
T        Si     0.750630000000     0.576590000000     0.145720000000     0          
T        Si     0.354110000000     0.965400000000     0.916430000000     0          
T        Si     0.312280000000     0.965470000000     0.861220000000     0          
T        Si     0.242800000000     0.965530000000     0.860810000000     0          
T        Si     0.201250000000     0.965450000000     0.916580000000     0          
T        Si     0.132220000000     0.965450000000     0.916540000000     0          
T        Si     0.077310000000     0.465350000000     0.416410000000     0          
T        Si     0.034490000000     0.465490000000     0.362170000000     0          
T        Si     0.194120000000     0.687460000000     0.854680000000     0          
T        Si     0.243480000000     0.805360000000     0.923280000000     0          
T        Si     0.194470000000     0.756640000000     0.854410000000     0          
T        Si     0.194670000000     0.923730000000     0.687320000000     0          
T        Si     0.465740000000     0.854910000000     0.806000000000     0          
T        Si     0.424070000000     0.965780000000     0.694620000000     0          
T        Si     0.423410000000     0.750630000000     0.145720000000     0          
T        Si     0.034600000000     0.354110000000     0.916430000000     0          
T        Si     0.034530000000     0.312280000000     0.861220000000     0          
T        Si     0.034470000000     0.242800000000     0.860810000000     0          
T        Si     0.034550000000     0.201250000000     0.916580000000     0          
T        Si     0.034550000000     0.132220000000     0.916540000000     0          
T        Si     0.534650000000     0.077310000000     0.416410000000     0          
T        Si     0.534510000000     0.034490000000     0.362170000000     0          
T        Si     0.312540000000     0.194120000000     0.854680000000     0          
T        Si     0.194640000000     0.243480000000     0.923280000000     0          
T        Si     0.243360000000     0.194470000000     0.854410000000     0          
T        Si     0.076270000000     0.194670000000     0.687320000000     0          
T        Si     0.145090000000     0.465740000000     0.806000000000     0          
T        Si     0.034220000000     0.424070000000     0.694620000000     0          
T        Si     0.249370000000     0.423410000000     0.145720000000     0          
T        Si     0.645890000000     0.034600000000     0.916430000000     0          
T        Si     0.687720000000     0.034530000000     0.861220000000     0          
T        Si     0.757200000000     0.034470000000     0.860810000000     0          
T        Si     0.798750000000     0.034550000000     0.916580000000     0          
T        Si     0.867780000000     0.034550000000     0.916540000000     0          
T        Si     0.922690000000     0.534650000000     0.416410000000     0          
T        Si     0.965510000000     0.534510000000     0.362170000000     0          
T        Si     0.805880000000     0.312540000000     0.854680000000     0          
T        Si     0.756520000000     0.194640000000     0.923280000000     0          
T        Si     0.805530000000     0.243360000000     0.854410000000     0          
T        Si     0.805330000000     0.076270000000     0.687320000000     0          
T        Si     0.534260000000     0.145090000000     0.806000000000     0          
T        Si     0.575930000000     0.034220000000     0.694620000000     0          
T        Si     0.576590000000     0.249370000000     0.145720000000     0          
T        Si     0.965400000000     0.354110000000     0.083570000000     0          
T        Si     0.965470000000     0.312280000000     0.138780000000     0          
T        Si     0.965530000000     0.242800000000     0.139190000000     0          
T        Si     0.965450000000     0.201250000000     0.083420000000     0          
T        Si     0.965450000000     0.132220000000     0.083460000000     0          
T        Si     0.465350000000     0.077310000000     0.583590000000     0          
T        Si     0.465490000000     0.034490000000     0.637830000000     0          
T        Si     0.687460000000     0.194120000000     0.145320000000     0          
T        Si     0.805360000000     0.243480000000     0.076720000000     0          
T        Si     0.756640000000     0.194470000000     0.145590000000     0          
T        Si     0.923730000000     0.194670000000     0.312680000000     0          
T        Si     0.854910000000     0.465740000000     0.194000000000     0          
T        Si     0.965780000000     0.424070000000     0.305380000000     0          
T        Si     0.750630000000     0.423410000000     0.854280000000     0          
T        Si     0.645890000000     0.965400000000     0.083570000000     0          
T        Si     0.687720000000     0.965470000000     0.138780000000     0          
T        Si     0.757200000000     0.965530000000     0.139190000000     0          
T        Si     0.798750000000     0.965450000000     0.083420000000     0          
T        Si     0.867780000000     0.965450000000     0.083460000000     0          
T        Si     0.922690000000     0.465350000000     0.583590000000     0          
T        Si     0.965510000000     0.465490000000     0.637830000000     0          
T        Si     0.805880000000     0.687460000000     0.145320000000     0          
T        Si     0.756520000000     0.805360000000     0.076720000000     0          
T        Si     0.805530000000     0.756640000000     0.145590000000     0          
T        Si     0.805330000000     0.923730000000     0.312680000000     0          
T        Si     0.534260000000     0.854910000000     0.194000000000     0          
T        Si     0.575930000000     0.965780000000     0.305380000000     0          
T        Si     0.576590000000     0.750630000000     0.854280000000     0          
T        Si     0.034600000000     0.645890000000     0.083570000000     0          
T        Si     0.034530000000     0.687720000000     0.138780000000     0          
T        Si     0.034470000000     0.757200000000     0.139190000000     0          
T        Si     0.034550000000     0.798750000000     0.083420000000     0          
T        Si     0.034550000000     0.867780000000     0.083460000000     0          
T        Si     0.534650000000     0.922690000000     0.583590000000     0          
T        Si     0.534510000000     0.965510000000     0.637830000000     0          
T        Si     0.312540000000     0.805880000000     0.145320000000     0          
T        Si     0.194640000000     0.756520000000     0.076720000000     0          
T        Si     0.243360000000     0.805530000000     0.145590000000     0          
T        Si     0.076270000000     0.805330000000     0.312680000000     0          
T        Si     0.145090000000     0.534260000000     0.194000000000     0          
T        Si     0.034220000000     0.575930000000     0.305380000000     0          
T        Si     0.249370000000     0.576590000000     0.854280000000     0          
T        Si     0.354110000000     0.034600000000     0.083570000000     0          
T        Si     0.312280000000     0.034530000000     0.138780000000     0          
T        Si     0.242800000000     0.034470000000     0.139190000000     0          
T        Si     0.201250000000     0.034550000000     0.083420000000     0          
T        Si     0.132220000000     0.034550000000     0.083460000000     0          
T        Si     0.077310000000     0.534650000000     0.583590000000     0          
T        Si     0.034490000000     0.534510000000     0.637830000000     0          
T        Si     0.194120000000     0.312540000000     0.145320000000     0          
T        Si     0.243480000000     0.194640000000     0.076720000000     0          
T        Si     0.194470000000     0.243360000000     0.145590000000     0          
T        Si     0.194670000000     0.076270000000     0.312680000000     0          
T        Si     0.465740000000     0.145090000000     0.194000000000     0          
T        Si     0.424070000000     0.034220000000     0.305380000000     0          
T        Si     0.423410000000     0.249370000000     0.854280000000     0          
T        Si     0.916430000000     0.965400000000     0.645890000000     0          
T        Si     0.861220000000     0.965470000000     0.687720000000     0          
T        Si     0.860810000000     0.965530000000     0.757200000000     0          
T        Si     0.916580000000     0.965450000000     0.798750000000     0          
T        Si     0.916540000000     0.965450000000     0.867780000000     0          
T        Si     0.416410000000     0.465350000000     0.922690000000     0          
T        Si     0.362170000000     0.465490000000     0.965510000000     0          
T        Si     0.854680000000     0.687460000000     0.805880000000     0          
T        Si     0.923280000000     0.805360000000     0.756520000000     0          
T        Si     0.854410000000     0.756640000000     0.805530000000     0          
T        Si     0.687320000000     0.923730000000     0.805330000000     0          
T        Si     0.806000000000     0.854910000000     0.534260000000     0          
T        Si     0.694620000000     0.965780000000     0.575930000000     0          
T        Si     0.145720000000     0.750630000000     0.576590000000     0          
T        Si     0.916430000000     0.034600000000     0.354110000000     0          
T        Si     0.861220000000     0.034530000000     0.312280000000     0          
T        Si     0.860810000000     0.034470000000     0.242800000000     0          
T        Si     0.916580000000     0.034550000000     0.201250000000     0          
T        Si     0.916540000000     0.034550000000     0.132220000000     0          
T        Si     0.416410000000     0.534650000000     0.077310000000     0          
T        Si     0.362170000000     0.534510000000     0.034490000000     0          
T        Si     0.854680000000     0.312540000000     0.194120000000     0          
T        Si     0.923280000000     0.194640000000     0.243480000000     0          
T        Si     0.854410000000     0.243360000000     0.194470000000     0          
T        Si     0.687320000000     0.076270000000     0.194670000000     0          
T        Si     0.806000000000     0.145090000000     0.465740000000     0          
T        Si     0.694620000000     0.034220000000     0.424070000000     0          
T        Si     0.145720000000     0.249370000000     0.423410000000     0          
T        Si     0.965400000000     0.916430000000     0.354110000000     0          
T        Si     0.965470000000     0.861220000000     0.312280000000     0          
T        Si     0.965530000000     0.860810000000     0.242800000000     0          
T        Si     0.965450000000     0.916580000000     0.201250000000     0          
T        Si     0.965450000000     0.916540000000     0.132220000000     0          
T        Si     0.465350000000     0.416410000000     0.077310000000     0          
T        Si     0.465490000000     0.362170000000     0.034490000000     0          
T        Si     0.687460000000     0.854680000000     0.194120000000     0          
T        Si     0.805360000000     0.923280000000     0.243480000000     0          
T        Si     0.756640000000     0.854410000000     0.194470000000     0          
T        Si     0.923730000000     0.687320000000     0.194670000000     0          
T        Si     0.854910000000     0.806000000000     0.465740000000     0          
T        Si     0.965780000000     0.694620000000     0.424070000000     0          
T        Si     0.750630000000     0.145720000000     0.423410000000     0          
T        Si     0.083570000000     0.965400000000     0.354110000000     0          
T        Si     0.138780000000     0.965470000000     0.312280000000     0          
T        Si     0.139190000000     0.965530000000     0.242800000000     0          
T        Si     0.083420000000     0.965450000000     0.201250000000     0          
T        Si     0.083460000000     0.965450000000     0.132220000000     0          
T        Si     0.583590000000     0.465350000000     0.077310000000     0          
T        Si     0.637830000000     0.465490000000     0.034490000000     0          
T        Si     0.145320000000     0.687460000000     0.194120000000     0          
T        Si     0.076720000000     0.805360000000     0.243480000000     0          
T        Si     0.145590000000     0.756640000000     0.194470000000     0          
T        Si     0.312680000000     0.923730000000     0.194670000000     0          
T        Si     0.194000000000     0.854910000000     0.465740000000     0          
T        Si     0.305380000000     0.965780000000     0.424070000000     0          
T        Si     0.854280000000     0.750630000000     0.423410000000     0          
T        Si     0.034600000000     0.083570000000     0.354110000000     0          
T        Si     0.034530000000     0.138780000000     0.312280000000     0          
T        Si     0.034470000000     0.139190000000     0.242800000000     0          
T        Si     0.034550000000     0.083420000000     0.201250000000     0          
T        Si     0.034550000000     0.083460000000     0.132220000000     0          
T        Si     0.534650000000     0.583590000000     0.077310000000     0          
T        Si     0.534510000000     0.637830000000     0.034490000000     0          
T        Si     0.312540000000     0.145320000000     0.194120000000     0          
T        Si     0.194640000000     0.076720000000     0.243480000000     0          
T        Si     0.243360000000     0.145590000000     0.194470000000     0          
T        Si     0.076270000000     0.312680000000     0.194670000000     0          
T        Si     0.145090000000     0.194000000000     0.465740000000     0          
T        Si     0.034220000000     0.305380000000     0.424070000000     0          
T        Si     0.249370000000     0.854280000000     0.423410000000     0          
T        Si     0.083570000000     0.034600000000     0.645890000000     0          
T        Si     0.138780000000     0.034530000000     0.687720000000     0          
T        Si     0.139190000000     0.034470000000     0.757200000000     0          
T        Si     0.083420000000     0.034550000000     0.798750000000     0          
T        Si     0.083460000000     0.034550000000     0.867780000000     0          
T        Si     0.583590000000     0.534650000000     0.922690000000     0          
T        Si     0.637830000000     0.534510000000     0.965510000000     0          
T        Si     0.145320000000     0.312540000000     0.805880000000     0          
T        Si     0.076720000000     0.194640000000     0.756520000000     0          
T        Si     0.145590000000     0.243360000000     0.805530000000     0          
T        Si     0.312680000000     0.076270000000     0.805330000000     0          
T        Si     0.194000000000     0.145090000000     0.534260000000     0          
T        Si     0.305380000000     0.034220000000     0.575930000000     0          
T        Si     0.854280000000     0.249370000000     0.576590000000     0          
T        Si     0.965400000000     0.083570000000     0.645890000000     0          
T        Si     0.965470000000     0.138780000000     0.687720000000     0          
T        Si     0.965530000000     0.139190000000     0.757200000000     0          
T        Si     0.965450000000     0.083420000000     0.798750000000     0          
T        Si     0.965450000000     0.083460000000     0.867780000000     0          
T        Si     0.465350000000     0.583590000000     0.922690000000     0          
T        Si     0.465490000000     0.637830000000     0.965510000000     0          
T        Si     0.687460000000     0.145320000000     0.805880000000     0          
T        Si     0.805360000000     0.076720000000     0.756520000000     0          
T        Si     0.756640000000     0.145590000000     0.805530000000     0          
T        Si     0.923730000000     0.312680000000     0.805330000000     0          
T        Si     0.854910000000     0.194000000000     0.534260000000     0          
T        Si     0.965780000000     0.305380000000     0.575930000000     0          
T        Si     0.750630000000     0.854280000000     0.576590000000     0          
T        Si     0.034600000000     0.916430000000     0.645890000000     0          
T        Si     0.034530000000     0.861220000000     0.687720000000     0          
T        Si     0.034470000000     0.860810000000     0.757200000000     0          
T        Si     0.034550000000     0.916580000000     0.798750000000     0          
T        Si     0.034550000000     0.916540000000     0.867780000000     0          
T        Si     0.534650000000     0.416410000000     0.922690000000     0          
T        Si     0.534510000000     0.362170000000     0.965510000000     0          
T        Si     0.312540000000     0.854680000000     0.805880000000     0          
T        Si     0.194640000000     0.923280000000     0.756520000000     0          
T        Si     0.243360000000     0.854410000000     0.805530000000     0          
T        Si     0.076270000000     0.687320000000     0.805330000000     0          
T        Si     0.145090000000     0.806000000000     0.534260000000     0          
T        Si     0.034220000000     0.694620000000     0.575930000000     0          
T        Si     0.249370000000     0.145720000000     0.576590000000     0          
O        O      0.832310000000     0.610510000000     0.544230000000     0          
O        O      0.777490000000     0.630870000000     0.539130000000     0          
O        O      0.722350000000     0.611080000000     0.543730000000     0          
O        O      0.666740000000     0.592290000000     0.539530000000     0          
O        O      0.111600000000     0.593320000000     0.539480000000     0          
O        O      0.555570000000     0.110480000000     0.044600000000     0          
O        O      0.685860000000     0.610740000000     0.818050000000     0          
O        O      0.702800000000     0.778020000000     0.650520000000     0          
O        O      0.738190000000     0.685530000000     0.611120000000     0          
O        O      0.778040000000     0.571420000000     0.703080000000     0          
O        O      0.333140000000     0.555140000000     0.178750000000     0          
O        O      0.332780000000     0.555340000000     0.265740000000     0          
O        O      0.932440000000     0.777170000000     0.666700000000     0          
O        O      0.945020000000     0.833570000000     0.458040000000     0          
O        O      0.778180000000     0.932590000000     0.443840000000     0          
O        O      0.778040000000     0.666580000000     0.845580000000     0          
O        O      0.741240000000     0.111250000000     0.349090000000     0          
O        O      0.611220000000     0.071260000000     0.241930000000     0          
O        O      0.889570000000     0.539160000000     0.185700000000     0          
O        O      0.345720000000     0.278940000000     0.056110000000     0          
O        O      0.818470000000     0.353270000000     0.500000000000     0          
O        O      0.929200000000     0.795530000000     0.500000000000     0          
O        O      0.571640000000     0.075800000000     0.000000000000     0          
O        O      0.540760000000     0.145810000000     0.000000000000     0          
O        O      0.848590000000     0.575470000000     0.500000000000     0          
O        O      0.736890000000     0.647600000000     0.500000000000     0          
O        O      0.706740000000     0.575080000000     0.500000000000     0          
O        O      0.626790000000     0.575030000000     0.500000000000     0          
O        O      0.849550000000     0.500000000000     0.203590000000     0          
O        O      0.570030000000     0.054490000000     0.054490000000     0          
O        O      0.846730000000     0.554620000000     0.554620000000     0          
O        O      0.709470000000     0.554960000000     0.554960000000     0          
O        O      0.334810000000     0.334810000000     0.042010000000     0          
O        O      0.665730000000     0.665730000000     0.821020000000     0          
O        O      0.723220000000     0.723220000000     0.568550000000     0          
O        O      0.611350000000     0.611350000000     0.543550000000     0          
O        O      0.722850000000     0.653860000000     0.722850000000     0          
O        O      0.623920000000     0.555160000000     0.555160000000     0          
O        O      0.734550000000     0.666680000000     0.666680000000     0          
O        O      0.500000000000     0.128530000000     0.038760000000     0          
O        O      0.389490000000     0.832310000000     0.544230000000     0          
O        O      0.369130000000     0.777490000000     0.539130000000     0          
O        O      0.388920000000     0.722350000000     0.543730000000     0          
O        O      0.407710000000     0.666740000000     0.539530000000     0          
O        O      0.406680000000     0.111600000000     0.539480000000     0          
O        O      0.889520000000     0.555570000000     0.044600000000     0          
O        O      0.389260000000     0.685860000000     0.818050000000     0          
O        O      0.221980000000     0.702800000000     0.650520000000     0          
O        O      0.314470000000     0.738190000000     0.611120000000     0          
O        O      0.428580000000     0.778040000000     0.703080000000     0          
O        O      0.444860000000     0.333140000000     0.178750000000     0          
O        O      0.444660000000     0.332780000000     0.265740000000     0          
O        O      0.222830000000     0.932440000000     0.666700000000     0          
O        O      0.166430000000     0.945020000000     0.458040000000     0          
O        O      0.067410000000     0.778180000000     0.443840000000     0          
O        O      0.333420000000     0.778040000000     0.845580000000     0          
O        O      0.888750000000     0.741240000000     0.349090000000     0          
O        O      0.928740000000     0.611220000000     0.241930000000     0          
O        O      0.460840000000     0.889570000000     0.185700000000     0          
O        O      0.721060000000     0.345720000000     0.056110000000     0          
O        O      0.646730000000     0.818470000000     0.500000000000     0          
O        O      0.204470000000     0.929200000000     0.500000000000     0          
O        O      0.924200000000     0.571640000000     0.000000000000     0          
O        O      0.854190000000     0.540760000000     0.000000000000     0          
O        O      0.424530000000     0.848590000000     0.500000000000     0          
O        O      0.352400000000     0.736890000000     0.500000000000     0          
O        O      0.424920000000     0.706740000000     0.500000000000     0          
O        O      0.424970000000     0.626790000000     0.500000000000     0          
O        O      0.500000000000     0.849550000000     0.203590000000     0          
O        O      0.945510000000     0.570030000000     0.054490000000     0          
O        O      0.445380000000     0.846730000000     0.554620000000     0          
O        O      0.445040000000     0.709470000000     0.554960000000     0          
O        O      0.665190000000     0.334810000000     0.042010000000     0          
O        O      0.334270000000     0.665730000000     0.821020000000     0          
O        O      0.276780000000     0.723220000000     0.568550000000     0          
O        O      0.388650000000     0.611350000000     0.543550000000     0          
O        O      0.346140000000     0.722850000000     0.722850000000     0          
O        O      0.444840000000     0.623920000000     0.555160000000     0          
O        O      0.333320000000     0.734550000000     0.666680000000     0          
O        O      0.871470000000     0.500000000000     0.038760000000     0          
O        O      0.167690000000     0.389490000000     0.544230000000     0          
O        O      0.222510000000     0.369130000000     0.539130000000     0          
O        O      0.277650000000     0.388920000000     0.543730000000     0          
O        O      0.333260000000     0.407710000000     0.539530000000     0          
O        O      0.888400000000     0.406680000000     0.539480000000     0          
O        O      0.444430000000     0.889520000000     0.044600000000     0          
O        O      0.314140000000     0.389260000000     0.818050000000     0          
O        O      0.297200000000     0.221980000000     0.650520000000     0          
O        O      0.261810000000     0.314470000000     0.611120000000     0          
O        O      0.221960000000     0.428580000000     0.703080000000     0          
O        O      0.666860000000     0.444860000000     0.178750000000     0          
O        O      0.667220000000     0.444660000000     0.265740000000     0          
O        O      0.067560000000     0.222830000000     0.666700000000     0          
O        O      0.054980000000     0.166430000000     0.458040000000     0          
O        O      0.221820000000     0.067410000000     0.443840000000     0          
O        O      0.221960000000     0.333420000000     0.845580000000     0          
O        O      0.258760000000     0.888750000000     0.349090000000     0          
O        O      0.388780000000     0.928740000000     0.241930000000     0          
O        O      0.110430000000     0.460840000000     0.185700000000     0          
O        O      0.654280000000     0.721060000000     0.056110000000     0          
O        O      0.181530000000     0.646730000000     0.500000000000     0          
O        O      0.070800000000     0.204470000000     0.500000000000     0          
O        O      0.428360000000     0.924200000000     0.000000000000     0          
O        O      0.459240000000     0.854190000000     0.000000000000     0          
O        O      0.151410000000     0.424530000000     0.500000000000     0          
O        O      0.263110000000     0.352400000000     0.500000000000     0          
O        O      0.293260000000     0.424920000000     0.500000000000     0          
O        O      0.373210000000     0.424970000000     0.500000000000     0          
O        O      0.150450000000     0.500000000000     0.203590000000     0          
O        O      0.429970000000     0.945510000000     0.054490000000     0          
O        O      0.153270000000     0.445380000000     0.554620000000     0          
O        O      0.290530000000     0.445040000000     0.554960000000     0          
O        O      0.665190000000     0.665190000000     0.042010000000     0          
O        O      0.334270000000     0.334270000000     0.821020000000     0          
O        O      0.276780000000     0.276780000000     0.568550000000     0          
O        O      0.388650000000     0.388650000000     0.543550000000     0          
O        O      0.277150000000     0.346140000000     0.722850000000     0          
O        O      0.376080000000     0.444840000000     0.555160000000     0          
O        O      0.265450000000     0.333320000000     0.666680000000     0          
O        O      0.500000000000     0.871470000000     0.038760000000     0          
O        O      0.610510000000     0.167690000000     0.544230000000     0          
O        O      0.630870000000     0.222510000000     0.539130000000     0          
O        O      0.611080000000     0.277650000000     0.543730000000     0          
O        O      0.592290000000     0.333260000000     0.539530000000     0          
O        O      0.593320000000     0.888400000000     0.539480000000     0          
O        O      0.110480000000     0.444430000000     0.044600000000     0          
O        O      0.610740000000     0.314140000000     0.818050000000     0          
O        O      0.778020000000     0.297200000000     0.650520000000     0          
O        O      0.685530000000     0.261810000000     0.611120000000     0          
O        O      0.571420000000     0.221960000000     0.703080000000     0          
O        O      0.555140000000     0.666860000000     0.178750000000     0          
O        O      0.555340000000     0.667220000000     0.265740000000     0          
O        O      0.777170000000     0.067560000000     0.666700000000     0          
O        O      0.833570000000     0.054980000000     0.458040000000     0          
O        O      0.932590000000     0.221820000000     0.443840000000     0          
O        O      0.666580000000     0.221960000000     0.845580000000     0          
O        O      0.111250000000     0.258760000000     0.349090000000     0          
O        O      0.071260000000     0.388780000000     0.241930000000     0          
O        O      0.539160000000     0.110430000000     0.185700000000     0          
O        O      0.278940000000     0.654280000000     0.056110000000     0          
O        O      0.353270000000     0.181530000000     0.500000000000     0          
O        O      0.795530000000     0.070800000000     0.500000000000     0          
O        O      0.075800000000     0.428360000000     0.000000000000     0          
O        O      0.145810000000     0.459240000000     0.000000000000     0          
O        O      0.575470000000     0.151410000000     0.500000000000     0          
O        O      0.647600000000     0.263110000000     0.500000000000     0          
O        O      0.575080000000     0.293260000000     0.500000000000     0          
O        O      0.575030000000     0.373210000000     0.500000000000     0          
O        O      0.500000000000     0.150450000000     0.203590000000     0          
O        O      0.054490000000     0.429970000000     0.054490000000     0          
O        O      0.554620000000     0.153270000000     0.554620000000     0          
O        O      0.554960000000     0.290530000000     0.554960000000     0          
O        O      0.334810000000     0.665190000000     0.042010000000     0          
O        O      0.665730000000     0.334270000000     0.821020000000     0          
O        O      0.723220000000     0.276780000000     0.568550000000     0          
O        O      0.611350000000     0.388650000000     0.543550000000     0          
O        O      0.653860000000     0.277150000000     0.722850000000     0          
O        O      0.555160000000     0.376080000000     0.555160000000     0          
O        O      0.666680000000     0.265450000000     0.666680000000     0          
O        O      0.128530000000     0.500000000000     0.038760000000     0          
O        O      0.832310000000     0.389490000000     0.455770000000     0          
O        O      0.777490000000     0.369130000000     0.460870000000     0          
O        O      0.722350000000     0.388920000000     0.456270000000     0          
O        O      0.666740000000     0.407710000000     0.460470000000     0          
O        O      0.111600000000     0.406680000000     0.460520000000     0          
O        O      0.555570000000     0.889520000000     0.955400000000     0          
O        O      0.685860000000     0.389260000000     0.181950000000     0          
O        O      0.702800000000     0.221980000000     0.349480000000     0          
O        O      0.738190000000     0.314470000000     0.388880000000     0          
O        O      0.778040000000     0.428580000000     0.296920000000     0          
O        O      0.333140000000     0.444860000000     0.821250000000     0          
O        O      0.332780000000     0.444660000000     0.734260000000     0          
O        O      0.932440000000     0.222830000000     0.333300000000     0          
O        O      0.945020000000     0.166430000000     0.541960000000     0          
O        O      0.778180000000     0.067410000000     0.556160000000     0          
O        O      0.778040000000     0.333420000000     0.154420000000     0          
O        O      0.741240000000     0.888750000000     0.650910000000     0          
O        O      0.611220000000     0.928740000000     0.758070000000     0          
O        O      0.889570000000     0.460840000000     0.814300000000     0          
O        O      0.345720000000     0.721060000000     0.943890000000     0          
O        O      0.818470000000     0.646730000000     0.500000000000     0          
O        O      0.929200000000     0.204470000000     0.500000000000     0          
O        O      0.571640000000     0.924200000000     0.000000000000     0          
O        O      0.540760000000     0.854190000000     0.000000000000     0          
O        O      0.848590000000     0.424530000000     0.500000000000     0          
O        O      0.736890000000     0.352400000000     0.500000000000     0          
O        O      0.706740000000     0.424920000000     0.500000000000     0          
O        O      0.626790000000     0.424970000000     0.500000000000     0          
O        O      0.849550000000     0.500000000000     0.796410000000     0          
O        O      0.570030000000     0.945510000000     0.945510000000     0          
O        O      0.846730000000     0.445380000000     0.445380000000     0          
O        O      0.709470000000     0.445040000000     0.445040000000     0          
O        O      0.334810000000     0.665190000000     0.957990000000     0          
O        O      0.665730000000     0.334270000000     0.178980000000     0          
O        O      0.723220000000     0.276780000000     0.431450000000     0          
O        O      0.611350000000     0.388650000000     0.456450000000     0          
O        O      0.722850000000     0.346140000000     0.277150000000     0          
O        O      0.623920000000     0.444840000000     0.444840000000     0          
O        O      0.734550000000     0.333320000000     0.333320000000     0          
O        O      0.500000000000     0.871470000000     0.961240000000     0          
O        O      0.610510000000     0.832310000000     0.455770000000     0          
O        O      0.630870000000     0.777490000000     0.460870000000     0          
O        O      0.611080000000     0.722350000000     0.456270000000     0          
O        O      0.592290000000     0.666740000000     0.460470000000     0          
O        O      0.593320000000     0.111600000000     0.460520000000     0          
O        O      0.110480000000     0.555570000000     0.955400000000     0          
O        O      0.610740000000     0.685860000000     0.181950000000     0          
O        O      0.778020000000     0.702800000000     0.349480000000     0          
O        O      0.685530000000     0.738190000000     0.388880000000     0          
O        O      0.571420000000     0.778040000000     0.296920000000     0          
O        O      0.555140000000     0.333140000000     0.821250000000     0          
O        O      0.555340000000     0.332780000000     0.734260000000     0          
O        O      0.777170000000     0.932440000000     0.333300000000     0          
O        O      0.833570000000     0.945020000000     0.541960000000     0          
O        O      0.932590000000     0.778180000000     0.556160000000     0          
O        O      0.666580000000     0.778040000000     0.154420000000     0          
O        O      0.111250000000     0.741240000000     0.650910000000     0          
O        O      0.071260000000     0.611220000000     0.758070000000     0          
O        O      0.539160000000     0.889570000000     0.814300000000     0          
O        O      0.278940000000     0.345720000000     0.943890000000     0          
O        O      0.353270000000     0.818470000000     0.500000000000     0          
O        O      0.795530000000     0.929200000000     0.500000000000     0          
O        O      0.075800000000     0.571640000000     0.000000000000     0          
O        O      0.145810000000     0.540760000000     0.000000000000     0          
O        O      0.575470000000     0.848590000000     0.500000000000     0          
O        O      0.647600000000     0.736890000000     0.500000000000     0          
O        O      0.575080000000     0.706740000000     0.500000000000     0          
O        O      0.575030000000     0.626790000000     0.500000000000     0          
O        O      0.500000000000     0.849550000000     0.796410000000     0          
O        O      0.054490000000     0.570030000000     0.945510000000     0          
O        O      0.554620000000     0.846730000000     0.445380000000     0          
O        O      0.554960000000     0.709470000000     0.445040000000     0          
O        O      0.334810000000     0.334810000000     0.957990000000     0          
O        O      0.665730000000     0.665730000000     0.178980000000     0          
O        O      0.723220000000     0.723220000000     0.431450000000     0          
O        O      0.611350000000     0.611350000000     0.456450000000     0          
O        O      0.653860000000     0.722850000000     0.277150000000     0          
O        O      0.555160000000     0.623920000000     0.444840000000     0          
O        O      0.666680000000     0.734550000000     0.333320000000     0          
O        O      0.128530000000     0.500000000000     0.961240000000     0          
O        O      0.167690000000     0.610510000000     0.455770000000     0          
O        O      0.222510000000     0.630870000000     0.460870000000     0          
O        O      0.277650000000     0.611080000000     0.456270000000     0          
O        O      0.333260000000     0.592290000000     0.460470000000     0          
O        O      0.888400000000     0.593320000000     0.460520000000     0          
O        O      0.444430000000     0.110480000000     0.955400000000     0          
O        O      0.314140000000     0.610740000000     0.181950000000     0          
O        O      0.297200000000     0.778020000000     0.349480000000     0          
O        O      0.261810000000     0.685530000000     0.388880000000     0          
O        O      0.221960000000     0.571420000000     0.296920000000     0          
O        O      0.666860000000     0.555140000000     0.821250000000     0          
O        O      0.667220000000     0.555340000000     0.734260000000     0          
O        O      0.067560000000     0.777170000000     0.333300000000     0          
O        O      0.054980000000     0.833570000000     0.541960000000     0          
O        O      0.221820000000     0.932590000000     0.556160000000     0          
O        O      0.221960000000     0.666580000000     0.154420000000     0          
O        O      0.258760000000     0.111250000000     0.650910000000     0          
O        O      0.388780000000     0.071260000000     0.758070000000     0          
O        O      0.110430000000     0.539160000000     0.814300000000     0          
O        O      0.654280000000     0.278940000000     0.943890000000     0          
O        O      0.181530000000     0.353270000000     0.500000000000     0          
O        O      0.070800000000     0.795530000000     0.500000000000     0          
O        O      0.428360000000     0.075800000000     0.000000000000     0          
O        O      0.459240000000     0.145810000000     0.000000000000     0          
O        O      0.151410000000     0.575470000000     0.500000000000     0          
O        O      0.263110000000     0.647600000000     0.500000000000     0          
O        O      0.293260000000     0.575080000000     0.500000000000     0          
O        O      0.373210000000     0.575030000000     0.500000000000     0          
O        O      0.150450000000     0.500000000000     0.796410000000     0          
O        O      0.429970000000     0.054490000000     0.945510000000     0          
O        O      0.153270000000     0.554620000000     0.445380000000     0          
O        O      0.290530000000     0.554960000000     0.445040000000     0          
O        O      0.665190000000     0.334810000000     0.957990000000     0          
O        O      0.334270000000     0.665730000000     0.178980000000     0          
O        O      0.276780000000     0.723220000000     0.431450000000     0          
O        O      0.388650000000     0.611350000000     0.456450000000     0          
O        O      0.277150000000     0.653860000000     0.277150000000     0          
O        O      0.376080000000     0.555160000000     0.444840000000     0          
O        O      0.265450000000     0.666680000000     0.333320000000     0          
O        O      0.500000000000     0.128530000000     0.961240000000     0          
O        O      0.389490000000     0.167690000000     0.455770000000     0          
O        O      0.369130000000     0.222510000000     0.460870000000     0          
O        O      0.388920000000     0.277650000000     0.456270000000     0          
O        O      0.407710000000     0.333260000000     0.460470000000     0          
O        O      0.406680000000     0.888400000000     0.460520000000     0          
O        O      0.889520000000     0.444430000000     0.955400000000     0          
O        O      0.389260000000     0.314140000000     0.181950000000     0          
O        O      0.221980000000     0.297200000000     0.349480000000     0          
O        O      0.314470000000     0.261810000000     0.388880000000     0          
O        O      0.428580000000     0.221960000000     0.296920000000     0          
O        O      0.444860000000     0.666860000000     0.821250000000     0          
O        O      0.444660000000     0.667220000000     0.734260000000     0          
O        O      0.222830000000     0.067560000000     0.333300000000     0          
O        O      0.166430000000     0.054980000000     0.541960000000     0          
O        O      0.067410000000     0.221820000000     0.556160000000     0          
O        O      0.333420000000     0.221960000000     0.154420000000     0          
O        O      0.888750000000     0.258760000000     0.650910000000     0          
O        O      0.928740000000     0.388780000000     0.758070000000     0          
O        O      0.460840000000     0.110430000000     0.814300000000     0          
O        O      0.721060000000     0.654280000000     0.943890000000     0          
O        O      0.646730000000     0.181530000000     0.500000000000     0          
O        O      0.204470000000     0.070800000000     0.500000000000     0          
O        O      0.924200000000     0.428360000000     0.000000000000     0          
O        O      0.854190000000     0.459240000000     0.000000000000     0          
O        O      0.424530000000     0.151410000000     0.500000000000     0          
O        O      0.352400000000     0.263110000000     0.500000000000     0          
O        O      0.424920000000     0.293260000000     0.500000000000     0          
O        O      0.424970000000     0.373210000000     0.500000000000     0          
O        O      0.500000000000     0.150450000000     0.796410000000     0          
O        O      0.945510000000     0.429970000000     0.945510000000     0          
O        O      0.445380000000     0.153270000000     0.445380000000     0          
O        O      0.445040000000     0.290530000000     0.445040000000     0          
O        O      0.665190000000     0.665190000000     0.957990000000     0          
O        O      0.334270000000     0.334270000000     0.178980000000     0          
O        O      0.276780000000     0.276780000000     0.431450000000     0          
O        O      0.388650000000     0.388650000000     0.456450000000     0          
O        O      0.346140000000     0.277150000000     0.277150000000     0          
O        O      0.444840000000     0.376080000000     0.444840000000     0          
O        O      0.333320000000     0.265450000000     0.333320000000     0          
O        O      0.871470000000     0.500000000000     0.961240000000     0          
O        O      0.544230000000     0.832310000000     0.610510000000     0          
O        O      0.539130000000     0.777490000000     0.630870000000     0          
O        O      0.543730000000     0.722350000000     0.611080000000     0          
O        O      0.539530000000     0.666740000000     0.592290000000     0          
O        O      0.539480000000     0.111600000000     0.593320000000     0          
O        O      0.044600000000     0.555570000000     0.110480000000     0          
O        O      0.818050000000     0.685860000000     0.610740000000     0          
O        O      0.650520000000     0.702800000000     0.778020000000     0          
O        O      0.611120000000     0.738190000000     0.685530000000     0          
O        O      0.703080000000     0.778040000000     0.571420000000     0          
O        O      0.178750000000     0.333140000000     0.555140000000     0          
O        O      0.265740000000     0.332780000000     0.555340000000     0          
O        O      0.666700000000     0.932440000000     0.777170000000     0          
O        O      0.458040000000     0.945020000000     0.833570000000     0          
O        O      0.443840000000     0.778180000000     0.932590000000     0          
O        O      0.845580000000     0.778040000000     0.666580000000     0          
O        O      0.349090000000     0.741240000000     0.111250000000     0          
O        O      0.241930000000     0.611220000000     0.071260000000     0          
O        O      0.185700000000     0.889570000000     0.539160000000     0          
O        O      0.056110000000     0.345720000000     0.278940000000     0          
O        O      0.500000000000     0.818470000000     0.353270000000     0          
O        O      0.500000000000     0.929200000000     0.795530000000     0          
O        O      0.000000000000     0.571640000000     0.075800000000     0          
O        O      0.000000000000     0.540760000000     0.145810000000     0          
O        O      0.500000000000     0.848590000000     0.575470000000     0          
O        O      0.500000000000     0.736890000000     0.647600000000     0          
O        O      0.500000000000     0.706740000000     0.575080000000     0          
O        O      0.500000000000     0.626790000000     0.575030000000     0          
O        O      0.203590000000     0.849550000000     0.500000000000     0          
O        O      0.054490000000     0.570030000000     0.054490000000     0          
O        O      0.554620000000     0.846730000000     0.554620000000     0          
O        O      0.554960000000     0.709470000000     0.554960000000     0          
O        O      0.042010000000     0.334810000000     0.334810000000     0          
O        O      0.821020000000     0.665730000000     0.665730000000     0          
O        O      0.568550000000     0.723220000000     0.723220000000     0          
O        O      0.543550000000     0.611350000000     0.611350000000     0          
O        O      0.722850000000     0.722850000000     0.653860000000     0          
O        O      0.555160000000     0.623920000000     0.555160000000     0          
O        O      0.666680000000     0.734550000000     0.666680000000     0          
O        O      0.038760000000     0.500000000000     0.128530000000     0          
O        O      0.167690000000     0.544230000000     0.610510000000     0          
O        O      0.222510000000     0.539130000000     0.630870000000     0          
O        O      0.277650000000     0.543730000000     0.611080000000     0          
O        O      0.333260000000     0.539530000000     0.592290000000     0          
O        O      0.888400000000     0.539480000000     0.593320000000     0          
O        O      0.444430000000     0.044600000000     0.110480000000     0          
O        O      0.314140000000     0.818050000000     0.610740000000     0          
O        O      0.297200000000     0.650520000000     0.778020000000     0          
O        O      0.261810000000     0.611120000000     0.685530000000     0          
O        O      0.221960000000     0.703080000000     0.571420000000     0          
O        O      0.666860000000     0.178750000000     0.555140000000     0          
O        O      0.667220000000     0.265740000000     0.555340000000     0          
O        O      0.067560000000     0.666700000000     0.777170000000     0          
O        O      0.054980000000     0.458040000000     0.833570000000     0          
O        O      0.221820000000     0.443840000000     0.932590000000     0          
O        O      0.221960000000     0.845580000000     0.666580000000     0          
O        O      0.258760000000     0.349090000000     0.111250000000     0          
O        O      0.388780000000     0.241930000000     0.071260000000     0          
O        O      0.110430000000     0.185700000000     0.539160000000     0          
O        O      0.654280000000     0.056110000000     0.278940000000     0          
O        O      0.181530000000     0.500000000000     0.353270000000     0          
O        O      0.070800000000     0.500000000000     0.795530000000     0          
O        O      0.428360000000     0.000000000000     0.075800000000     0          
O        O      0.459240000000     0.000000000000     0.145810000000     0          
O        O      0.151410000000     0.500000000000     0.575470000000     0          
O        O      0.263110000000     0.500000000000     0.647600000000     0          
O        O      0.293260000000     0.500000000000     0.575080000000     0          
O        O      0.373210000000     0.500000000000     0.575030000000     0          
O        O      0.150450000000     0.203590000000     0.500000000000     0          
O        O      0.429970000000     0.054490000000     0.054490000000     0          
O        O      0.153270000000     0.554620000000     0.554620000000     0          
O        O      0.290530000000     0.554960000000     0.554960000000     0          
O        O      0.665190000000     0.042010000000     0.334810000000     0          
O        O      0.334270000000     0.821020000000     0.665730000000     0          
O        O      0.276780000000     0.568550000000     0.723220000000     0          
O        O      0.388650000000     0.543550000000     0.611350000000     0          
O        O      0.277150000000     0.722850000000     0.653860000000     0          
O        O      0.376080000000     0.555160000000     0.555160000000     0          
O        O      0.265450000000     0.666680000000     0.666680000000     0          
O        O      0.500000000000     0.038760000000     0.128530000000     0          
O        O      0.455770000000     0.167690000000     0.610510000000     0          
O        O      0.460870000000     0.222510000000     0.630870000000     0          
O        O      0.456270000000     0.277650000000     0.611080000000     0          
O        O      0.460470000000     0.333260000000     0.592290000000     0          
O        O      0.460520000000     0.888400000000     0.593320000000     0          
O        O      0.955400000000     0.444430000000     0.110480000000     0          
O        O      0.181950000000     0.314140000000     0.610740000000     0          
O        O      0.349480000000     0.297200000000     0.778020000000     0          
O        O      0.388880000000     0.261810000000     0.685530000000     0          
O        O      0.296920000000     0.221960000000     0.571420000000     0          
O        O      0.821250000000     0.666860000000     0.555140000000     0          
O        O      0.734260000000     0.667220000000     0.555340000000     0          
O        O      0.333300000000     0.067560000000     0.777170000000     0          
O        O      0.541960000000     0.054980000000     0.833570000000     0          
O        O      0.556160000000     0.221820000000     0.932590000000     0          
O        O      0.154420000000     0.221960000000     0.666580000000     0          
O        O      0.650910000000     0.258760000000     0.111250000000     0          
O        O      0.758070000000     0.388780000000     0.071260000000     0          
O        O      0.814300000000     0.110430000000     0.539160000000     0          
O        O      0.943890000000     0.654280000000     0.278940000000     0          
O        O      0.500000000000     0.181530000000     0.353270000000     0          
O        O      0.500000000000     0.070800000000     0.795530000000     0          
O        O      0.000000000000     0.428360000000     0.075800000000     0          
O        O      0.000000000000     0.459240000000     0.145810000000     0          
O        O      0.500000000000     0.151410000000     0.575470000000     0          
O        O      0.500000000000     0.263110000000     0.647600000000     0          
O        O      0.500000000000     0.293260000000     0.575080000000     0          
O        O      0.500000000000     0.373210000000     0.575030000000     0          
O        O      0.796410000000     0.150450000000     0.500000000000     0          
O        O      0.945510000000     0.429970000000     0.054490000000     0          
O        O      0.445380000000     0.153270000000     0.554620000000     0          
O        O      0.445040000000     0.290530000000     0.554960000000     0          
O        O      0.957990000000     0.665190000000     0.334810000000     0          
O        O      0.178980000000     0.334270000000     0.665730000000     0          
O        O      0.431450000000     0.276780000000     0.723220000000     0          
O        O      0.456450000000     0.388650000000     0.611350000000     0          
O        O      0.277150000000     0.277150000000     0.653860000000     0          
O        O      0.444840000000     0.376080000000     0.555160000000     0          
O        O      0.333320000000     0.265450000000     0.666680000000     0          
O        O      0.961240000000     0.500000000000     0.128530000000     0          
O        O      0.832310000000     0.455770000000     0.610510000000     0          
O        O      0.777490000000     0.460870000000     0.630870000000     0          
O        O      0.722350000000     0.456270000000     0.611080000000     0          
O        O      0.666740000000     0.460470000000     0.592290000000     0          
O        O      0.111600000000     0.460520000000     0.593320000000     0          
O        O      0.555570000000     0.955400000000     0.110480000000     0          
O        O      0.685860000000     0.181950000000     0.610740000000     0          
O        O      0.702800000000     0.349480000000     0.778020000000     0          
O        O      0.738190000000     0.388880000000     0.685530000000     0          
O        O      0.778040000000     0.296920000000     0.571420000000     0          
O        O      0.333140000000     0.821250000000     0.555140000000     0          
O        O      0.332780000000     0.734260000000     0.555340000000     0          
O        O      0.932440000000     0.333300000000     0.777170000000     0          
O        O      0.945020000000     0.541960000000     0.833570000000     0          
O        O      0.778180000000     0.556160000000     0.932590000000     0          
O        O      0.778040000000     0.154420000000     0.666580000000     0          
O        O      0.741240000000     0.650910000000     0.111250000000     0          
O        O      0.611220000000     0.758070000000     0.071260000000     0          
O        O      0.889570000000     0.814300000000     0.539160000000     0          
O        O      0.345720000000     0.943890000000     0.278940000000     0          
O        O      0.818470000000     0.500000000000     0.353270000000     0          
O        O      0.929200000000     0.500000000000     0.795530000000     0          
O        O      0.571640000000     0.000000000000     0.075800000000     0          
O        O      0.540760000000     0.000000000000     0.145810000000     0          
O        O      0.848590000000     0.500000000000     0.575470000000     0          
O        O      0.736890000000     0.500000000000     0.647600000000     0          
O        O      0.706740000000     0.500000000000     0.575080000000     0          
O        O      0.626790000000     0.500000000000     0.575030000000     0          
O        O      0.849550000000     0.796410000000     0.500000000000     0          
O        O      0.570030000000     0.945510000000     0.054490000000     0          
O        O      0.846730000000     0.445380000000     0.554620000000     0          
O        O      0.709470000000     0.445040000000     0.554960000000     0          
O        O      0.334810000000     0.957990000000     0.334810000000     0          
O        O      0.665730000000     0.178980000000     0.665730000000     0          
O        O      0.723220000000     0.431450000000     0.723220000000     0          
O        O      0.611350000000     0.456450000000     0.611350000000     0          
O        O      0.722850000000     0.277150000000     0.653860000000     0          
O        O      0.623920000000     0.444840000000     0.555160000000     0          
O        O      0.734550000000     0.333320000000     0.666680000000     0          
O        O      0.500000000000     0.961240000000     0.128530000000     0          
O        O      0.544230000000     0.167690000000     0.389490000000     0          
O        O      0.539130000000     0.222510000000     0.369130000000     0          
O        O      0.543730000000     0.277650000000     0.388920000000     0          
O        O      0.539530000000     0.333260000000     0.407710000000     0          
O        O      0.539480000000     0.888400000000     0.406680000000     0          
O        O      0.044600000000     0.444430000000     0.889520000000     0          
O        O      0.818050000000     0.314140000000     0.389260000000     0          
O        O      0.650520000000     0.297200000000     0.221980000000     0          
O        O      0.611120000000     0.261810000000     0.314470000000     0          
O        O      0.703080000000     0.221960000000     0.428580000000     0          
O        O      0.178750000000     0.666860000000     0.444860000000     0          
O        O      0.265740000000     0.667220000000     0.444660000000     0          
O        O      0.666700000000     0.067560000000     0.222830000000     0          
O        O      0.458040000000     0.054980000000     0.166430000000     0          
O        O      0.443840000000     0.221820000000     0.067410000000     0          
O        O      0.845580000000     0.221960000000     0.333420000000     0          
O        O      0.349090000000     0.258760000000     0.888750000000     0          
O        O      0.241930000000     0.388780000000     0.928740000000     0          
O        O      0.185700000000     0.110430000000     0.460840000000     0          
O        O      0.056110000000     0.654280000000     0.721060000000     0          
O        O      0.500000000000     0.181530000000     0.646730000000     0          
O        O      0.500000000000     0.070800000000     0.204470000000     0          
O        O      0.000000000000     0.428360000000     0.924200000000     0          
O        O      0.000000000000     0.459240000000     0.854190000000     0          
O        O      0.500000000000     0.151410000000     0.424530000000     0          
O        O      0.500000000000     0.263110000000     0.352400000000     0          
O        O      0.500000000000     0.293260000000     0.424920000000     0          
O        O      0.500000000000     0.373210000000     0.424970000000     0          
O        O      0.203590000000     0.150450000000     0.500000000000     0          
O        O      0.054490000000     0.429970000000     0.945510000000     0          
O        O      0.554620000000     0.153270000000     0.445380000000     0          
O        O      0.554960000000     0.290530000000     0.445040000000     0          
O        O      0.042010000000     0.665190000000     0.665190000000     0          
O        O      0.821020000000     0.334270000000     0.334270000000     0          
O        O      0.568550000000     0.276780000000     0.276780000000     0          
O        O      0.543550000000     0.388650000000     0.388650000000     0          
O        O      0.722850000000     0.277150000000     0.346140000000     0          
O        O      0.555160000000     0.376080000000     0.444840000000     0          
O        O      0.666680000000     0.265450000000     0.333320000000     0          
O        O      0.038760000000     0.500000000000     0.871470000000     0          
O        O      0.832310000000     0.544230000000     0.389490000000     0          
O        O      0.777490000000     0.539130000000     0.369130000000     0          
O        O      0.722350000000     0.543730000000     0.388920000000     0          
O        O      0.666740000000     0.539530000000     0.407710000000     0          
O        O      0.111600000000     0.539480000000     0.406680000000     0          
O        O      0.555570000000     0.044600000000     0.889520000000     0          
O        O      0.685860000000     0.818050000000     0.389260000000     0          
O        O      0.702800000000     0.650520000000     0.221980000000     0          
O        O      0.738190000000     0.611120000000     0.314470000000     0          
O        O      0.778040000000     0.703080000000     0.428580000000     0          
O        O      0.333140000000     0.178750000000     0.444860000000     0          
O        O      0.332780000000     0.265740000000     0.444660000000     0          
O        O      0.932440000000     0.666700000000     0.222830000000     0          
O        O      0.945020000000     0.458040000000     0.166430000000     0          
O        O      0.778180000000     0.443840000000     0.067410000000     0          
O        O      0.778040000000     0.845580000000     0.333420000000     0          
O        O      0.741240000000     0.349090000000     0.888750000000     0          
O        O      0.611220000000     0.241930000000     0.928740000000     0          
O        O      0.889570000000     0.185700000000     0.460840000000     0          
O        O      0.345720000000     0.056110000000     0.721060000000     0          
O        O      0.818470000000     0.500000000000     0.646730000000     0          
O        O      0.929200000000     0.500000000000     0.204470000000     0          
O        O      0.571640000000     0.000000000000     0.924200000000     0          
O        O      0.540760000000     0.000000000000     0.854190000000     0          
O        O      0.848590000000     0.500000000000     0.424530000000     0          
O        O      0.736890000000     0.500000000000     0.352400000000     0          
O        O      0.706740000000     0.500000000000     0.424920000000     0          
O        O      0.626790000000     0.500000000000     0.424970000000     0          
O        O      0.849550000000     0.203590000000     0.500000000000     0          
O        O      0.570030000000     0.054490000000     0.945510000000     0          
O        O      0.846730000000     0.554620000000     0.445380000000     0          
O        O      0.709470000000     0.554960000000     0.445040000000     0          
O        O      0.334810000000     0.042010000000     0.665190000000     0          
O        O      0.665730000000     0.821020000000     0.334270000000     0          
O        O      0.723220000000     0.568550000000     0.276780000000     0          
O        O      0.611350000000     0.543550000000     0.388650000000     0          
O        O      0.722850000000     0.722850000000     0.346140000000     0          
O        O      0.623920000000     0.555160000000     0.444840000000     0          
O        O      0.734550000000     0.666680000000     0.333320000000     0          
O        O      0.500000000000     0.038760000000     0.871470000000     0          
O        O      0.455770000000     0.832310000000     0.389490000000     0          
O        O      0.460870000000     0.777490000000     0.369130000000     0          
O        O      0.456270000000     0.722350000000     0.388920000000     0          
O        O      0.460470000000     0.666740000000     0.407710000000     0          
O        O      0.460520000000     0.111600000000     0.406680000000     0          
O        O      0.955400000000     0.555570000000     0.889520000000     0          
O        O      0.181950000000     0.685860000000     0.389260000000     0          
O        O      0.349480000000     0.702800000000     0.221980000000     0          
O        O      0.388880000000     0.738190000000     0.314470000000     0          
O        O      0.296920000000     0.778040000000     0.428580000000     0          
O        O      0.821250000000     0.333140000000     0.444860000000     0          
O        O      0.734260000000     0.332780000000     0.444660000000     0          
O        O      0.333300000000     0.932440000000     0.222830000000     0          
O        O      0.541960000000     0.945020000000     0.166430000000     0          
O        O      0.556160000000     0.778180000000     0.067410000000     0          
O        O      0.154420000000     0.778040000000     0.333420000000     0          
O        O      0.650910000000     0.741240000000     0.888750000000     0          
O        O      0.758070000000     0.611220000000     0.928740000000     0          
O        O      0.814300000000     0.889570000000     0.460840000000     0          
O        O      0.943890000000     0.345720000000     0.721060000000     0          
O        O      0.500000000000     0.818470000000     0.646730000000     0          
O        O      0.500000000000     0.929200000000     0.204470000000     0          
O        O      0.000000000000     0.571640000000     0.924200000000     0          
O        O      0.000000000000     0.540760000000     0.854190000000     0          
O        O      0.500000000000     0.848590000000     0.424530000000     0          
O        O      0.500000000000     0.736890000000     0.352400000000     0          
O        O      0.500000000000     0.706740000000     0.424920000000     0          
O        O      0.500000000000     0.626790000000     0.424970000000     0          
O        O      0.796410000000     0.849550000000     0.500000000000     0          
O        O      0.945510000000     0.570030000000     0.945510000000     0          
O        O      0.445380000000     0.846730000000     0.445380000000     0          
O        O      0.445040000000     0.709470000000     0.445040000000     0          
O        O      0.957990000000     0.334810000000     0.665190000000     0          
O        O      0.178980000000     0.665730000000     0.334270000000     0          
O        O      0.431450000000     0.723220000000     0.276780000000     0          
O        O      0.456450000000     0.611350000000     0.388650000000     0          
O        O      0.277150000000     0.722850000000     0.346140000000     0          
O        O      0.444840000000     0.623920000000     0.444840000000     0          
O        O      0.333320000000     0.734550000000     0.333320000000     0          
O        O      0.961240000000     0.500000000000     0.871470000000     0          
O        O      0.167690000000     0.455770000000     0.389490000000     0          
O        O      0.222510000000     0.460870000000     0.369130000000     0          
O        O      0.277650000000     0.456270000000     0.388920000000     0          
O        O      0.333260000000     0.460470000000     0.407710000000     0          
O        O      0.888400000000     0.460520000000     0.406680000000     0          
O        O      0.444430000000     0.955400000000     0.889520000000     0          
O        O      0.314140000000     0.181950000000     0.389260000000     0          
O        O      0.297200000000     0.349480000000     0.221980000000     0          
O        O      0.261810000000     0.388880000000     0.314470000000     0          
O        O      0.221960000000     0.296920000000     0.428580000000     0          
O        O      0.666860000000     0.821250000000     0.444860000000     0          
O        O      0.667220000000     0.734260000000     0.444660000000     0          
O        O      0.067560000000     0.333300000000     0.222830000000     0          
O        O      0.054980000000     0.541960000000     0.166430000000     0          
O        O      0.221820000000     0.556160000000     0.067410000000     0          
O        O      0.221960000000     0.154420000000     0.333420000000     0          
O        O      0.258760000000     0.650910000000     0.888750000000     0          
O        O      0.388780000000     0.758070000000     0.928740000000     0          
O        O      0.110430000000     0.814300000000     0.460840000000     0          
O        O      0.654280000000     0.943890000000     0.721060000000     0          
O        O      0.181530000000     0.500000000000     0.646730000000     0          
O        O      0.070800000000     0.500000000000     0.204470000000     0          
O        O      0.428360000000     0.000000000000     0.924200000000     0          
O        O      0.459240000000     0.000000000000     0.854190000000     0          
O        O      0.151410000000     0.500000000000     0.424530000000     0          
O        O      0.263110000000     0.500000000000     0.352400000000     0          
O        O      0.293260000000     0.500000000000     0.424920000000     0          
O        O      0.373210000000     0.500000000000     0.424970000000     0          
O        O      0.150450000000     0.796410000000     0.500000000000     0          
O        O      0.429970000000     0.945510000000     0.945510000000     0          
O        O      0.153270000000     0.445380000000     0.445380000000     0          
O        O      0.290530000000     0.445040000000     0.445040000000     0          
O        O      0.665190000000     0.957990000000     0.665190000000     0          
O        O      0.334270000000     0.178980000000     0.334270000000     0          
O        O      0.276780000000     0.431450000000     0.276780000000     0          
O        O      0.388650000000     0.456450000000     0.388650000000     0          
O        O      0.277150000000     0.277150000000     0.346140000000     0          
O        O      0.376080000000     0.444840000000     0.444840000000     0          
O        O      0.265450000000     0.333320000000     0.333320000000     0          
O        O      0.500000000000     0.961240000000     0.871470000000     0          
O        O      0.610510000000     0.544230000000     0.832310000000     0          
O        O      0.630870000000     0.539130000000     0.777490000000     0          
O        O      0.611080000000     0.543730000000     0.722350000000     0          
O        O      0.592290000000     0.539530000000     0.666740000000     0          
O        O      0.593320000000     0.539480000000     0.111600000000     0          
O        O      0.110480000000     0.044600000000     0.555570000000     0          
O        O      0.610740000000     0.818050000000     0.685860000000     0          
O        O      0.778020000000     0.650520000000     0.702800000000     0          
O        O      0.685530000000     0.611120000000     0.738190000000     0          
O        O      0.571420000000     0.703080000000     0.778040000000     0          
O        O      0.555140000000     0.178750000000     0.333140000000     0          
O        O      0.555340000000     0.265740000000     0.332780000000     0          
O        O      0.777170000000     0.666700000000     0.932440000000     0          
O        O      0.833570000000     0.458040000000     0.945020000000     0          
O        O      0.932590000000     0.443840000000     0.778180000000     0          
O        O      0.666580000000     0.845580000000     0.778040000000     0          
O        O      0.111250000000     0.349090000000     0.741240000000     0          
O        O      0.071260000000     0.241930000000     0.611220000000     0          
O        O      0.539160000000     0.185700000000     0.889570000000     0          
O        O      0.278940000000     0.056110000000     0.345720000000     0          
O        O      0.353270000000     0.500000000000     0.818470000000     0          
O        O      0.795530000000     0.500000000000     0.929200000000     0          
O        O      0.075800000000     0.000000000000     0.571640000000     0          
O        O      0.145810000000     0.000000000000     0.540760000000     0          
O        O      0.575470000000     0.500000000000     0.848590000000     0          
O        O      0.647600000000     0.500000000000     0.736890000000     0          
O        O      0.575080000000     0.500000000000     0.706740000000     0          
O        O      0.575030000000     0.500000000000     0.626790000000     0          
O        O      0.500000000000     0.203590000000     0.849550000000     0          
O        O      0.054490000000     0.054490000000     0.570030000000     0          
O        O      0.554620000000     0.554620000000     0.846730000000     0          
O        O      0.554960000000     0.554960000000     0.709470000000     0          
O        O      0.334810000000     0.042010000000     0.334810000000     0          
O        O      0.665730000000     0.821020000000     0.665730000000     0          
O        O      0.723220000000     0.568550000000     0.723220000000     0          
O        O      0.611350000000     0.543550000000     0.611350000000     0          
O        O      0.653860000000     0.722850000000     0.722850000000     0          
O        O      0.555160000000     0.555160000000     0.623920000000     0          
O        O      0.666680000000     0.666680000000     0.734550000000     0          
O        O      0.128530000000     0.038760000000     0.500000000000     0          
O        O      0.610510000000     0.455770000000     0.167690000000     0          
O        O      0.630870000000     0.460870000000     0.222510000000     0          
O        O      0.611080000000     0.456270000000     0.277650000000     0          
O        O      0.592290000000     0.460470000000     0.333260000000     0          
O        O      0.593320000000     0.460520000000     0.888400000000     0          
O        O      0.110480000000     0.955400000000     0.444430000000     0          
O        O      0.610740000000     0.181950000000     0.314140000000     0          
O        O      0.778020000000     0.349480000000     0.297200000000     0          
O        O      0.685530000000     0.388880000000     0.261810000000     0          
O        O      0.571420000000     0.296920000000     0.221960000000     0          
O        O      0.555140000000     0.821250000000     0.666860000000     0          
O        O      0.555340000000     0.734260000000     0.667220000000     0          
O        O      0.777170000000     0.333300000000     0.067560000000     0          
O        O      0.833570000000     0.541960000000     0.054980000000     0          
O        O      0.932590000000     0.556160000000     0.221820000000     0          
O        O      0.666580000000     0.154420000000     0.221960000000     0          
O        O      0.111250000000     0.650910000000     0.258760000000     0          
O        O      0.071260000000     0.758070000000     0.388780000000     0          
O        O      0.539160000000     0.814300000000     0.110430000000     0          
O        O      0.278940000000     0.943890000000     0.654280000000     0          
O        O      0.353270000000     0.500000000000     0.181530000000     0          
O        O      0.795530000000     0.500000000000     0.070800000000     0          
O        O      0.075800000000     0.000000000000     0.428360000000     0          
O        O      0.145810000000     0.000000000000     0.459240000000     0          
O        O      0.575470000000     0.500000000000     0.151410000000     0          
O        O      0.647600000000     0.500000000000     0.263110000000     0          
O        O      0.575080000000     0.500000000000     0.293260000000     0          
O        O      0.575030000000     0.500000000000     0.373210000000     0          
O        O      0.500000000000     0.796410000000     0.150450000000     0          
O        O      0.054490000000     0.945510000000     0.429970000000     0          
O        O      0.554620000000     0.445380000000     0.153270000000     0          
O        O      0.554960000000     0.445040000000     0.290530000000     0          
O        O      0.334810000000     0.957990000000     0.665190000000     0          
O        O      0.665730000000     0.178980000000     0.334270000000     0          
O        O      0.723220000000     0.431450000000     0.276780000000     0          
O        O      0.611350000000     0.456450000000     0.388650000000     0          
O        O      0.653860000000     0.277150000000     0.277150000000     0          
O        O      0.555160000000     0.444840000000     0.376080000000     0          
O        O      0.666680000000     0.333320000000     0.265450000000     0          
O        O      0.128530000000     0.961240000000     0.500000000000     0          
O        O      0.544230000000     0.610510000000     0.167690000000     0          
O        O      0.539130000000     0.630870000000     0.222510000000     0          
O        O      0.543730000000     0.611080000000     0.277650000000     0          
O        O      0.539530000000     0.592290000000     0.333260000000     0          
O        O      0.539480000000     0.593320000000     0.888400000000     0          
O        O      0.044600000000     0.110480000000     0.444430000000     0          
O        O      0.818050000000     0.610740000000     0.314140000000     0          
O        O      0.650520000000     0.778020000000     0.297200000000     0          
O        O      0.611120000000     0.685530000000     0.261810000000     0          
O        O      0.703080000000     0.571420000000     0.221960000000     0          
O        O      0.178750000000     0.555140000000     0.666860000000     0          
O        O      0.265740000000     0.555340000000     0.667220000000     0          
O        O      0.666700000000     0.777170000000     0.067560000000     0          
O        O      0.458040000000     0.833570000000     0.054980000000     0          
O        O      0.443840000000     0.932590000000     0.221820000000     0          
O        O      0.845580000000     0.666580000000     0.221960000000     0          
O        O      0.349090000000     0.111250000000     0.258760000000     0          
O        O      0.241930000000     0.071260000000     0.388780000000     0          
O        O      0.185700000000     0.539160000000     0.110430000000     0          
O        O      0.056110000000     0.278940000000     0.654280000000     0          
O        O      0.500000000000     0.353270000000     0.181530000000     0          
O        O      0.500000000000     0.795530000000     0.070800000000     0          
O        O      0.000000000000     0.075800000000     0.428360000000     0          
O        O      0.000000000000     0.145810000000     0.459240000000     0          
O        O      0.500000000000     0.575470000000     0.151410000000     0          
O        O      0.500000000000     0.647600000000     0.263110000000     0          
O        O      0.500000000000     0.575080000000     0.293260000000     0          
O        O      0.500000000000     0.575030000000     0.373210000000     0          
O        O      0.203590000000     0.500000000000     0.150450000000     0          
O        O      0.054490000000     0.054490000000     0.429970000000     0          
O        O      0.554620000000     0.554620000000     0.153270000000     0          
O        O      0.554960000000     0.554960000000     0.290530000000     0          
O        O      0.042010000000     0.334810000000     0.665190000000     0          
O        O      0.821020000000     0.665730000000     0.334270000000     0          
O        O      0.568550000000     0.723220000000     0.276780000000     0          
O        O      0.543550000000     0.611350000000     0.388650000000     0          
O        O      0.722850000000     0.653860000000     0.277150000000     0          
O        O      0.555160000000     0.555160000000     0.376080000000     0          
O        O      0.666680000000     0.666680000000     0.265450000000     0          
O        O      0.038760000000     0.128530000000     0.500000000000     0          
O        O      0.389490000000     0.544230000000     0.167690000000     0          
O        O      0.369130000000     0.539130000000     0.222510000000     0          
O        O      0.388920000000     0.543730000000     0.277650000000     0          
O        O      0.407710000000     0.539530000000     0.333260000000     0          
O        O      0.406680000000     0.539480000000     0.888400000000     0          
O        O      0.889520000000     0.044600000000     0.444430000000     0          
O        O      0.389260000000     0.818050000000     0.314140000000     0          
O        O      0.221980000000     0.650520000000     0.297200000000     0          
O        O      0.314470000000     0.611120000000     0.261810000000     0          
O        O      0.428580000000     0.703080000000     0.221960000000     0          
O        O      0.444860000000     0.178750000000     0.666860000000     0          
O        O      0.444660000000     0.265740000000     0.667220000000     0          
O        O      0.222830000000     0.666700000000     0.067560000000     0          
O        O      0.166430000000     0.458040000000     0.054980000000     0          
O        O      0.067410000000     0.443840000000     0.221820000000     0          
O        O      0.333420000000     0.845580000000     0.221960000000     0          
O        O      0.888750000000     0.349090000000     0.258760000000     0          
O        O      0.928740000000     0.241930000000     0.388780000000     0          
O        O      0.460840000000     0.185700000000     0.110430000000     0          
O        O      0.721060000000     0.056110000000     0.654280000000     0          
O        O      0.646730000000     0.500000000000     0.181530000000     0          
O        O      0.204470000000     0.500000000000     0.070800000000     0          
O        O      0.924200000000     0.000000000000     0.428360000000     0          
O        O      0.854190000000     0.000000000000     0.459240000000     0          
O        O      0.424530000000     0.500000000000     0.151410000000     0          
O        O      0.352400000000     0.500000000000     0.263110000000     0          
O        O      0.424920000000     0.500000000000     0.293260000000     0          
O        O      0.424970000000     0.500000000000     0.373210000000     0          
O        O      0.500000000000     0.203590000000     0.150450000000     0          
O        O      0.945510000000     0.054490000000     0.429970000000     0          
O        O      0.445380000000     0.554620000000     0.153270000000     0          
O        O      0.445040000000     0.554960000000     0.290530000000     0          
O        O      0.665190000000     0.042010000000     0.665190000000     0          
O        O      0.334270000000     0.821020000000     0.334270000000     0          
O        O      0.276780000000     0.568550000000     0.276780000000     0          
O        O      0.388650000000     0.543550000000     0.388650000000     0          
O        O      0.346140000000     0.722850000000     0.277150000000     0          
O        O      0.444840000000     0.555160000000     0.376080000000     0          
O        O      0.333320000000     0.666680000000     0.265450000000     0          
O        O      0.871470000000     0.038760000000     0.500000000000     0          
O        O      0.455770000000     0.389490000000     0.167690000000     0          
O        O      0.460870000000     0.369130000000     0.222510000000     0          
O        O      0.456270000000     0.388920000000     0.277650000000     0          
O        O      0.460470000000     0.407710000000     0.333260000000     0          
O        O      0.460520000000     0.406680000000     0.888400000000     0          
O        O      0.955400000000     0.889520000000     0.444430000000     0          
O        O      0.181950000000     0.389260000000     0.314140000000     0          
O        O      0.349480000000     0.221980000000     0.297200000000     0          
O        O      0.388880000000     0.314470000000     0.261810000000     0          
O        O      0.296920000000     0.428580000000     0.221960000000     0          
O        O      0.821250000000     0.444860000000     0.666860000000     0          
O        O      0.734260000000     0.444660000000     0.667220000000     0          
O        O      0.333300000000     0.222830000000     0.067560000000     0          
O        O      0.541960000000     0.166430000000     0.054980000000     0          
O        O      0.556160000000     0.067410000000     0.221820000000     0          
O        O      0.154420000000     0.333420000000     0.221960000000     0          
O        O      0.650910000000     0.888750000000     0.258760000000     0          
O        O      0.758070000000     0.928740000000     0.388780000000     0          
O        O      0.814300000000     0.460840000000     0.110430000000     0          
O        O      0.943890000000     0.721060000000     0.654280000000     0          
O        O      0.500000000000     0.646730000000     0.181530000000     0          
O        O      0.500000000000     0.204470000000     0.070800000000     0          
O        O      0.000000000000     0.924200000000     0.428360000000     0          
O        O      0.000000000000     0.854190000000     0.459240000000     0          
O        O      0.500000000000     0.424530000000     0.151410000000     0          
O        O      0.500000000000     0.352400000000     0.263110000000     0          
O        O      0.500000000000     0.424920000000     0.293260000000     0          
O        O      0.500000000000     0.424970000000     0.373210000000     0          
O        O      0.796410000000     0.500000000000     0.150450000000     0          
O        O      0.945510000000     0.945510000000     0.429970000000     0          
O        O      0.445380000000     0.445380000000     0.153270000000     0          
O        O      0.445040000000     0.445040000000     0.290530000000     0          
O        O      0.957990000000     0.665190000000     0.665190000000     0          
O        O      0.178980000000     0.334270000000     0.334270000000     0          
O        O      0.431450000000     0.276780000000     0.276780000000     0          
O        O      0.456450000000     0.388650000000     0.388650000000     0          
O        O      0.277150000000     0.346140000000     0.277150000000     0          
O        O      0.444840000000     0.444840000000     0.376080000000     0          
O        O      0.333320000000     0.333320000000     0.265450000000     0          
O        O      0.961240000000     0.871470000000     0.500000000000     0          
O        O      0.389490000000     0.455770000000     0.832310000000     0          
O        O      0.369130000000     0.460870000000     0.777490000000     0          
O        O      0.388920000000     0.456270000000     0.722350000000     0          
O        O      0.407710000000     0.460470000000     0.666740000000     0          
O        O      0.406680000000     0.460520000000     0.111600000000     0          
O        O      0.889520000000     0.955400000000     0.555570000000     0          
O        O      0.389260000000     0.181950000000     0.685860000000     0          
O        O      0.221980000000     0.349480000000     0.702800000000     0          
O        O      0.314470000000     0.388880000000     0.738190000000     0          
O        O      0.428580000000     0.296920000000     0.778040000000     0          
O        O      0.444860000000     0.821250000000     0.333140000000     0          
O        O      0.444660000000     0.734260000000     0.332780000000     0          
O        O      0.222830000000     0.333300000000     0.932440000000     0          
O        O      0.166430000000     0.541960000000     0.945020000000     0          
O        O      0.067410000000     0.556160000000     0.778180000000     0          
O        O      0.333420000000     0.154420000000     0.778040000000     0          
O        O      0.888750000000     0.650910000000     0.741240000000     0          
O        O      0.928740000000     0.758070000000     0.611220000000     0          
O        O      0.460840000000     0.814300000000     0.889570000000     0          
O        O      0.721060000000     0.943890000000     0.345720000000     0          
O        O      0.646730000000     0.500000000000     0.818470000000     0          
O        O      0.204470000000     0.500000000000     0.929200000000     0          
O        O      0.924200000000     0.000000000000     0.571640000000     0          
O        O      0.854190000000     0.000000000000     0.540760000000     0          
O        O      0.424530000000     0.500000000000     0.848590000000     0          
O        O      0.352400000000     0.500000000000     0.736890000000     0          
O        O      0.424920000000     0.500000000000     0.706740000000     0          
O        O      0.424970000000     0.500000000000     0.626790000000     0          
O        O      0.500000000000     0.796410000000     0.849550000000     0          
O        O      0.945510000000     0.945510000000     0.570030000000     0          
O        O      0.445380000000     0.445380000000     0.846730000000     0          
O        O      0.445040000000     0.445040000000     0.709470000000     0          
O        O      0.665190000000     0.957990000000     0.334810000000     0          
O        O      0.334270000000     0.178980000000     0.665730000000     0          
O        O      0.276780000000     0.431450000000     0.723220000000     0          
O        O      0.388650000000     0.456450000000     0.611350000000     0          
O        O      0.346140000000     0.277150000000     0.722850000000     0          
O        O      0.444840000000     0.444840000000     0.623920000000     0          
O        O      0.333320000000     0.333320000000     0.734550000000     0          
O        O      0.871470000000     0.961240000000     0.500000000000     0          
O        O      0.544230000000     0.389490000000     0.832310000000     0          
O        O      0.539130000000     0.369130000000     0.777490000000     0          
O        O      0.543730000000     0.388920000000     0.722350000000     0          
O        O      0.539530000000     0.407710000000     0.666740000000     0          
O        O      0.539480000000     0.406680000000     0.111600000000     0          
O        O      0.044600000000     0.889520000000     0.555570000000     0          
O        O      0.818050000000     0.389260000000     0.685860000000     0          
O        O      0.650520000000     0.221980000000     0.702800000000     0          
O        O      0.611120000000     0.314470000000     0.738190000000     0          
O        O      0.703080000000     0.428580000000     0.778040000000     0          
O        O      0.178750000000     0.444860000000     0.333140000000     0          
O        O      0.265740000000     0.444660000000     0.332780000000     0          
O        O      0.666700000000     0.222830000000     0.932440000000     0          
O        O      0.458040000000     0.166430000000     0.945020000000     0          
O        O      0.443840000000     0.067410000000     0.778180000000     0          
O        O      0.845580000000     0.333420000000     0.778040000000     0          
O        O      0.349090000000     0.888750000000     0.741240000000     0          
O        O      0.241930000000     0.928740000000     0.611220000000     0          
O        O      0.185700000000     0.460840000000     0.889570000000     0          
O        O      0.056110000000     0.721060000000     0.345720000000     0          
O        O      0.500000000000     0.646730000000     0.818470000000     0          
O        O      0.500000000000     0.204470000000     0.929200000000     0          
O        O      0.000000000000     0.924200000000     0.571640000000     0          
O        O      0.000000000000     0.854190000000     0.540760000000     0          
O        O      0.500000000000     0.424530000000     0.848590000000     0          
O        O      0.500000000000     0.352400000000     0.736890000000     0          
O        O      0.500000000000     0.424920000000     0.706740000000     0          
O        O      0.500000000000     0.424970000000     0.626790000000     0          
O        O      0.203590000000     0.500000000000     0.849550000000     0          
O        O      0.054490000000     0.945510000000     0.570030000000     0          
O        O      0.554620000000     0.445380000000     0.846730000000     0          
O        O      0.554960000000     0.445040000000     0.709470000000     0          
O        O      0.042010000000     0.665190000000     0.334810000000     0          
O        O      0.821020000000     0.334270000000     0.665730000000     0          
O        O      0.568550000000     0.276780000000     0.723220000000     0          
O        O      0.543550000000     0.388650000000     0.611350000000     0          
O        O      0.722850000000     0.346140000000     0.722850000000     0          
O        O      0.555160000000     0.444840000000     0.623920000000     0          
O        O      0.666680000000     0.333320000000     0.734550000000     0          
O        O      0.038760000000     0.871470000000     0.500000000000     0          
O        O      0.455770000000     0.610510000000     0.832310000000     0          
O        O      0.460870000000     0.630870000000     0.777490000000     0          
O        O      0.456270000000     0.611080000000     0.722350000000     0          
O        O      0.460470000000     0.592290000000     0.666740000000     0          
O        O      0.460520000000     0.593320000000     0.111600000000     0          
O        O      0.955400000000     0.110480000000     0.555570000000     0          
O        O      0.181950000000     0.610740000000     0.685860000000     0          
O        O      0.349480000000     0.778020000000     0.702800000000     0          
O        O      0.388880000000     0.685530000000     0.738190000000     0          
O        O      0.296920000000     0.571420000000     0.778040000000     0          
O        O      0.821250000000     0.555140000000     0.333140000000     0          
O        O      0.734260000000     0.555340000000     0.332780000000     0          
O        O      0.333300000000     0.777170000000     0.932440000000     0          
O        O      0.541960000000     0.833570000000     0.945020000000     0          
O        O      0.556160000000     0.932590000000     0.778180000000     0          
O        O      0.154420000000     0.666580000000     0.778040000000     0          
O        O      0.650910000000     0.111250000000     0.741240000000     0          
O        O      0.758070000000     0.071260000000     0.611220000000     0          
O        O      0.814300000000     0.539160000000     0.889570000000     0          
O        O      0.943890000000     0.278940000000     0.345720000000     0          
O        O      0.500000000000     0.353270000000     0.818470000000     0          
O        O      0.500000000000     0.795530000000     0.929200000000     0          
O        O      0.000000000000     0.075800000000     0.571640000000     0          
O        O      0.000000000000     0.145810000000     0.540760000000     0          
O        O      0.500000000000     0.575470000000     0.848590000000     0          
O        O      0.500000000000     0.647600000000     0.736890000000     0          
O        O      0.500000000000     0.575080000000     0.706740000000     0          
O        O      0.500000000000     0.575030000000     0.626790000000     0          
O        O      0.796410000000     0.500000000000     0.849550000000     0          
O        O      0.945510000000     0.054490000000     0.570030000000     0          
O        O      0.445380000000     0.554620000000     0.846730000000     0          
O        O      0.445040000000     0.554960000000     0.709470000000     0          
O        O      0.957990000000     0.334810000000     0.334810000000     0          
O        O      0.178980000000     0.665730000000     0.665730000000     0          
O        O      0.431450000000     0.723220000000     0.723220000000     0          
O        O      0.456450000000     0.611350000000     0.611350000000     0          
O        O      0.277150000000     0.653860000000     0.722850000000     0          
O        O      0.444840000000     0.555160000000     0.623920000000     0          
O        O      0.333320000000     0.666680000000     0.734550000000     0          
O        O      0.961240000000     0.128530000000     0.500000000000     0          
O        O      0.167690000000     0.389490000000     0.455770000000     0          
O        O      0.222510000000     0.369130000000     0.460870000000     0          
O        O      0.277650000000     0.388920000000     0.456270000000     0          
O        O      0.333260000000     0.407710000000     0.460470000000     0          
O        O      0.888400000000     0.406680000000     0.460520000000     0          
O        O      0.444430000000     0.889520000000     0.955400000000     0          
O        O      0.314140000000     0.389260000000     0.181950000000     0          
O        O      0.297200000000     0.221980000000     0.349480000000     0          
O        O      0.261810000000     0.314470000000     0.388880000000     0          
O        O      0.221960000000     0.428580000000     0.296920000000     0          
O        O      0.666860000000     0.444860000000     0.821250000000     0          
O        O      0.667220000000     0.444660000000     0.734260000000     0          
O        O      0.067560000000     0.222830000000     0.333300000000     0          
O        O      0.054980000000     0.166430000000     0.541960000000     0          
O        O      0.221820000000     0.067410000000     0.556160000000     0          
O        O      0.221960000000     0.333420000000     0.154420000000     0          
O        O      0.258760000000     0.888750000000     0.650910000000     0          
O        O      0.388780000000     0.928740000000     0.758070000000     0          
O        O      0.110430000000     0.460840000000     0.814300000000     0          
O        O      0.654280000000     0.721060000000     0.943890000000     0          
O        O      0.610510000000     0.167690000000     0.455770000000     0          
O        O      0.630870000000     0.222510000000     0.460870000000     0          
O        O      0.611080000000     0.277650000000     0.456270000000     0          
O        O      0.592290000000     0.333260000000     0.460470000000     0          
O        O      0.593320000000     0.888400000000     0.460520000000     0          
O        O      0.110480000000     0.444430000000     0.955400000000     0          
O        O      0.610740000000     0.314140000000     0.181950000000     0          
O        O      0.778020000000     0.297200000000     0.349480000000     0          
O        O      0.685530000000     0.261810000000     0.388880000000     0          
O        O      0.571420000000     0.221960000000     0.296920000000     0          
O        O      0.555140000000     0.666860000000     0.821250000000     0          
O        O      0.555340000000     0.667220000000     0.734260000000     0          
O        O      0.777170000000     0.067560000000     0.333300000000     0          
O        O      0.833570000000     0.054980000000     0.541960000000     0          
O        O      0.932590000000     0.221820000000     0.556160000000     0          
O        O      0.666580000000     0.221960000000     0.154420000000     0          
O        O      0.111250000000     0.258760000000     0.650910000000     0          
O        O      0.071260000000     0.388780000000     0.758070000000     0          
O        O      0.539160000000     0.110430000000     0.814300000000     0          
O        O      0.278940000000     0.654280000000     0.943890000000     0          
O        O      0.832310000000     0.610510000000     0.455770000000     0          
O        O      0.777490000000     0.630870000000     0.460870000000     0          
O        O      0.722350000000     0.611080000000     0.456270000000     0          
O        O      0.666740000000     0.592290000000     0.460470000000     0          
O        O      0.111600000000     0.593320000000     0.460520000000     0          
O        O      0.555570000000     0.110480000000     0.955400000000     0          
O        O      0.685860000000     0.610740000000     0.181950000000     0          
O        O      0.702800000000     0.778020000000     0.349480000000     0          
O        O      0.738190000000     0.685530000000     0.388880000000     0          
O        O      0.778040000000     0.571420000000     0.296920000000     0          
O        O      0.333140000000     0.555140000000     0.821250000000     0          
O        O      0.332780000000     0.555340000000     0.734260000000     0          
O        O      0.932440000000     0.777170000000     0.333300000000     0          
O        O      0.945020000000     0.833570000000     0.541960000000     0          
O        O      0.778180000000     0.932590000000     0.556160000000     0          
O        O      0.778040000000     0.666580000000     0.154420000000     0          
O        O      0.741240000000     0.111250000000     0.650910000000     0          
O        O      0.611220000000     0.071260000000     0.758070000000     0          
O        O      0.889570000000     0.539160000000     0.814300000000     0          
O        O      0.345720000000     0.278940000000     0.943890000000     0          
O        O      0.389490000000     0.832310000000     0.455770000000     0          
O        O      0.369130000000     0.777490000000     0.460870000000     0          
O        O      0.388920000000     0.722350000000     0.456270000000     0          
O        O      0.407710000000     0.666740000000     0.460470000000     0          
O        O      0.406680000000     0.111600000000     0.460520000000     0          
O        O      0.889520000000     0.555570000000     0.955400000000     0          
O        O      0.389260000000     0.685860000000     0.181950000000     0          
O        O      0.221980000000     0.702800000000     0.349480000000     0          
O        O      0.314470000000     0.738190000000     0.388880000000     0          
O        O      0.428580000000     0.778040000000     0.296920000000     0          
O        O      0.444860000000     0.333140000000     0.821250000000     0          
O        O      0.444660000000     0.332780000000     0.734260000000     0          
O        O      0.222830000000     0.932440000000     0.333300000000     0          
O        O      0.166430000000     0.945020000000     0.541960000000     0          
O        O      0.067410000000     0.778180000000     0.556160000000     0          
O        O      0.333420000000     0.778040000000     0.154420000000     0          
O        O      0.888750000000     0.741240000000     0.650910000000     0          
O        O      0.928740000000     0.611220000000     0.758070000000     0          
O        O      0.460840000000     0.889570000000     0.814300000000     0          
O        O      0.721060000000     0.345720000000     0.943890000000     0          
O        O      0.167690000000     0.610510000000     0.544230000000     0          
O        O      0.222510000000     0.630870000000     0.539130000000     0          
O        O      0.277650000000     0.611080000000     0.543730000000     0          
O        O      0.333260000000     0.592290000000     0.539530000000     0          
O        O      0.888400000000     0.593320000000     0.539480000000     0          
O        O      0.444430000000     0.110480000000     0.044600000000     0          
O        O      0.314140000000     0.610740000000     0.818050000000     0          
O        O      0.297200000000     0.778020000000     0.650520000000     0          
O        O      0.261810000000     0.685530000000     0.611120000000     0          
O        O      0.221960000000     0.571420000000     0.703080000000     0          
O        O      0.666860000000     0.555140000000     0.178750000000     0          
O        O      0.667220000000     0.555340000000     0.265740000000     0          
O        O      0.067560000000     0.777170000000     0.666700000000     0          
O        O      0.054980000000     0.833570000000     0.458040000000     0          
O        O      0.221820000000     0.932590000000     0.443840000000     0          
O        O      0.221960000000     0.666580000000     0.845580000000     0          
O        O      0.258760000000     0.111250000000     0.349090000000     0          
O        O      0.388780000000     0.071260000000     0.241930000000     0          
O        O      0.110430000000     0.539160000000     0.185700000000     0          
O        O      0.654280000000     0.278940000000     0.056110000000     0          
O        O      0.389490000000     0.167690000000     0.544230000000     0          
O        O      0.369130000000     0.222510000000     0.539130000000     0          
O        O      0.388920000000     0.277650000000     0.543730000000     0          
O        O      0.407710000000     0.333260000000     0.539530000000     0          
O        O      0.406680000000     0.888400000000     0.539480000000     0          
O        O      0.889520000000     0.444430000000     0.044600000000     0          
O        O      0.389260000000     0.314140000000     0.818050000000     0          
O        O      0.221980000000     0.297200000000     0.650520000000     0          
O        O      0.314470000000     0.261810000000     0.611120000000     0          
O        O      0.428580000000     0.221960000000     0.703080000000     0          
O        O      0.444860000000     0.666860000000     0.178750000000     0          
O        O      0.444660000000     0.667220000000     0.265740000000     0          
O        O      0.222830000000     0.067560000000     0.666700000000     0          
O        O      0.166430000000     0.054980000000     0.458040000000     0          
O        O      0.067410000000     0.221820000000     0.443840000000     0          
O        O      0.333420000000     0.221960000000     0.845580000000     0          
O        O      0.888750000000     0.258760000000     0.349090000000     0          
O        O      0.928740000000     0.388780000000     0.241930000000     0          
O        O      0.460840000000     0.110430000000     0.185700000000     0          
O        O      0.721060000000     0.654280000000     0.056110000000     0          
O        O      0.832310000000     0.389490000000     0.544230000000     0          
O        O      0.777490000000     0.369130000000     0.539130000000     0          
O        O      0.722350000000     0.388920000000     0.543730000000     0          
O        O      0.666740000000     0.407710000000     0.539530000000     0          
O        O      0.111600000000     0.406680000000     0.539480000000     0          
O        O      0.555570000000     0.889520000000     0.044600000000     0          
O        O      0.685860000000     0.389260000000     0.818050000000     0          
O        O      0.702800000000     0.221980000000     0.650520000000     0          
O        O      0.738190000000     0.314470000000     0.611120000000     0          
O        O      0.778040000000     0.428580000000     0.703080000000     0          
O        O      0.333140000000     0.444860000000     0.178750000000     0          
O        O      0.332780000000     0.444660000000     0.265740000000     0          
O        O      0.932440000000     0.222830000000     0.666700000000     0          
O        O      0.945020000000     0.166430000000     0.458040000000     0          
O        O      0.778180000000     0.067410000000     0.443840000000     0          
O        O      0.778040000000     0.333420000000     0.845580000000     0          
O        O      0.741240000000     0.888750000000     0.349090000000     0          
O        O      0.611220000000     0.928740000000     0.241930000000     0          
O        O      0.889570000000     0.460840000000     0.185700000000     0          
O        O      0.345720000000     0.721060000000     0.056110000000     0          
O        O      0.610510000000     0.832310000000     0.544230000000     0          
O        O      0.630870000000     0.777490000000     0.539130000000     0          
O        O      0.611080000000     0.722350000000     0.543730000000     0          
O        O      0.592290000000     0.666740000000     0.539530000000     0          
O        O      0.593320000000     0.111600000000     0.539480000000     0          
O        O      0.110480000000     0.555570000000     0.044600000000     0          
O        O      0.610740000000     0.685860000000     0.818050000000     0          
O        O      0.778020000000     0.702800000000     0.650520000000     0          
O        O      0.685530000000     0.738190000000     0.611120000000     0          
O        O      0.571420000000     0.778040000000     0.703080000000     0          
O        O      0.555140000000     0.333140000000     0.178750000000     0          
O        O      0.555340000000     0.332780000000     0.265740000000     0          
O        O      0.777170000000     0.932440000000     0.666700000000     0          
O        O      0.833570000000     0.945020000000     0.458040000000     0          
O        O      0.932590000000     0.778180000000     0.443840000000     0          
O        O      0.666580000000     0.778040000000     0.845580000000     0          
O        O      0.111250000000     0.741240000000     0.349090000000     0          
O        O      0.071260000000     0.611220000000     0.241930000000     0          
O        O      0.539160000000     0.889570000000     0.185700000000     0          
O        O      0.278940000000     0.345720000000     0.056110000000     0          
O        O      0.455770000000     0.167690000000     0.389490000000     0          
O        O      0.460870000000     0.222510000000     0.369130000000     0          
O        O      0.456270000000     0.277650000000     0.388920000000     0          
O        O      0.460470000000     0.333260000000     0.407710000000     0          
O        O      0.460520000000     0.888400000000     0.406680000000     0          
O        O      0.955400000000     0.444430000000     0.889520000000     0          
O        O      0.181950000000     0.314140000000     0.389260000000     0          
O        O      0.349480000000     0.297200000000     0.221980000000     0          
O        O      0.388880000000     0.261810000000     0.314470000000     0          
O        O      0.296920000000     0.221960000000     0.428580000000     0          
O        O      0.821250000000     0.666860000000     0.444860000000     0          
O        O      0.734260000000     0.667220000000     0.444660000000     0          
O        O      0.333300000000     0.067560000000     0.222830000000     0          
O        O      0.541960000000     0.054980000000     0.166430000000     0          
O        O      0.556160000000     0.221820000000     0.067410000000     0          
O        O      0.154420000000     0.221960000000     0.333420000000     0          
O        O      0.650910000000     0.258760000000     0.888750000000     0          
O        O      0.758070000000     0.388780000000     0.928740000000     0          
O        O      0.814300000000     0.110430000000     0.460840000000     0          
O        O      0.943890000000     0.654280000000     0.721060000000     0          
O        O      0.832310000000     0.455770000000     0.389490000000     0          
O        O      0.777490000000     0.460870000000     0.369130000000     0          
O        O      0.722350000000     0.456270000000     0.388920000000     0          
O        O      0.666740000000     0.460470000000     0.407710000000     0          
O        O      0.111600000000     0.460520000000     0.406680000000     0          
O        O      0.555570000000     0.955400000000     0.889520000000     0          
O        O      0.685860000000     0.181950000000     0.389260000000     0          
O        O      0.702800000000     0.349480000000     0.221980000000     0          
O        O      0.738190000000     0.388880000000     0.314470000000     0          
O        O      0.778040000000     0.296920000000     0.428580000000     0          
O        O      0.333140000000     0.821250000000     0.444860000000     0          
O        O      0.332780000000     0.734260000000     0.444660000000     0          
O        O      0.932440000000     0.333300000000     0.222830000000     0          
O        O      0.945020000000     0.541960000000     0.166430000000     0          
O        O      0.778180000000     0.556160000000     0.067410000000     0          
O        O      0.778040000000     0.154420000000     0.333420000000     0          
O        O      0.741240000000     0.650910000000     0.888750000000     0          
O        O      0.611220000000     0.758070000000     0.928740000000     0          
O        O      0.889570000000     0.814300000000     0.460840000000     0          
O        O      0.345720000000     0.943890000000     0.721060000000     0          
O        O      0.544230000000     0.832310000000     0.389490000000     0          
O        O      0.539130000000     0.777490000000     0.369130000000     0          
O        O      0.543730000000     0.722350000000     0.388920000000     0          
O        O      0.539530000000     0.666740000000     0.407710000000     0          
O        O      0.539480000000     0.111600000000     0.406680000000     0          
O        O      0.044600000000     0.555570000000     0.889520000000     0          
O        O      0.818050000000     0.685860000000     0.389260000000     0          
O        O      0.650520000000     0.702800000000     0.221980000000     0          
O        O      0.611120000000     0.738190000000     0.314470000000     0          
O        O      0.703080000000     0.778040000000     0.428580000000     0          
O        O      0.178750000000     0.333140000000     0.444860000000     0          
O        O      0.265740000000     0.332780000000     0.444660000000     0          
O        O      0.666700000000     0.932440000000     0.222830000000     0          
O        O      0.458040000000     0.945020000000     0.166430000000     0          
O        O      0.443840000000     0.778180000000     0.067410000000     0          
O        O      0.845580000000     0.778040000000     0.333420000000     0          
O        O      0.349090000000     0.741240000000     0.888750000000     0          
O        O      0.241930000000     0.611220000000     0.928740000000     0          
O        O      0.185700000000     0.889570000000     0.460840000000     0          
O        O      0.056110000000     0.345720000000     0.721060000000     0          
O        O      0.167690000000     0.544230000000     0.389490000000     0          
O        O      0.222510000000     0.539130000000     0.369130000000     0          
O        O      0.277650000000     0.543730000000     0.388920000000     0          
O        O      0.333260000000     0.539530000000     0.407710000000     0          
O        O      0.888400000000     0.539480000000     0.406680000000     0          
O        O      0.444430000000     0.044600000000     0.889520000000     0          
O        O      0.314140000000     0.818050000000     0.389260000000     0          
O        O      0.297200000000     0.650520000000     0.221980000000     0          
O        O      0.261810000000     0.611120000000     0.314470000000     0          
O        O      0.221960000000     0.703080000000     0.428580000000     0          
O        O      0.666860000000     0.178750000000     0.444860000000     0          
O        O      0.667220000000     0.265740000000     0.444660000000     0          
O        O      0.067560000000     0.666700000000     0.222830000000     0          
O        O      0.054980000000     0.458040000000     0.166430000000     0          
O        O      0.221820000000     0.443840000000     0.067410000000     0          
O        O      0.221960000000     0.845580000000     0.333420000000     0          
O        O      0.258760000000     0.349090000000     0.888750000000     0          
O        O      0.388780000000     0.241930000000     0.928740000000     0          
O        O      0.110430000000     0.185700000000     0.460840000000     0          
O        O      0.654280000000     0.056110000000     0.721060000000     0          
O        O      0.455770000000     0.832310000000     0.610510000000     0          
O        O      0.460870000000     0.777490000000     0.630870000000     0          
O        O      0.456270000000     0.722350000000     0.611080000000     0          
O        O      0.460470000000     0.666740000000     0.592290000000     0          
O        O      0.460520000000     0.111600000000     0.593320000000     0          
O        O      0.955400000000     0.555570000000     0.110480000000     0          
O        O      0.181950000000     0.685860000000     0.610740000000     0          
O        O      0.349480000000     0.702800000000     0.778020000000     0          
O        O      0.388880000000     0.738190000000     0.685530000000     0          
O        O      0.296920000000     0.778040000000     0.571420000000     0          
O        O      0.821250000000     0.333140000000     0.555140000000     0          
O        O      0.734260000000     0.332780000000     0.555340000000     0          
O        O      0.333300000000     0.932440000000     0.777170000000     0          
O        O      0.541960000000     0.945020000000     0.833570000000     0          
O        O      0.556160000000     0.778180000000     0.932590000000     0          
O        O      0.154420000000     0.778040000000     0.666580000000     0          
O        O      0.650910000000     0.741240000000     0.111250000000     0          
O        O      0.758070000000     0.611220000000     0.071260000000     0          
O        O      0.814300000000     0.889570000000     0.539160000000     0          
O        O      0.943890000000     0.345720000000     0.278940000000     0          
O        O      0.167690000000     0.455770000000     0.610510000000     0          
O        O      0.222510000000     0.460870000000     0.630870000000     0          
O        O      0.277650000000     0.456270000000     0.611080000000     0          
O        O      0.333260000000     0.460470000000     0.592290000000     0          
O        O      0.888400000000     0.460520000000     0.593320000000     0          
O        O      0.444430000000     0.955400000000     0.110480000000     0          
O        O      0.314140000000     0.181950000000     0.610740000000     0          
O        O      0.297200000000     0.349480000000     0.778020000000     0          
O        O      0.261810000000     0.388880000000     0.685530000000     0          
O        O      0.221960000000     0.296920000000     0.571420000000     0          
O        O      0.666860000000     0.821250000000     0.555140000000     0          
O        O      0.667220000000     0.734260000000     0.555340000000     0          
O        O      0.067560000000     0.333300000000     0.777170000000     0          
O        O      0.054980000000     0.541960000000     0.833570000000     0          
O        O      0.221820000000     0.556160000000     0.932590000000     0          
O        O      0.221960000000     0.154420000000     0.666580000000     0          
O        O      0.258760000000     0.650910000000     0.111250000000     0          
O        O      0.388780000000     0.758070000000     0.071260000000     0          
O        O      0.110430000000     0.814300000000     0.539160000000     0          
O        O      0.654280000000     0.943890000000     0.278940000000     0          
O        O      0.544230000000     0.167690000000     0.610510000000     0          
O        O      0.539130000000     0.222510000000     0.630870000000     0          
O        O      0.543730000000     0.277650000000     0.611080000000     0          
O        O      0.539530000000     0.333260000000     0.592290000000     0          
O        O      0.539480000000     0.888400000000     0.593320000000     0          
O        O      0.044600000000     0.444430000000     0.110480000000     0          
O        O      0.818050000000     0.314140000000     0.610740000000     0          
O        O      0.650520000000     0.297200000000     0.778020000000     0          
O        O      0.611120000000     0.261810000000     0.685530000000     0          
O        O      0.703080000000     0.221960000000     0.571420000000     0          
O        O      0.178750000000     0.666860000000     0.555140000000     0          
O        O      0.265740000000     0.667220000000     0.555340000000     0          
O        O      0.666700000000     0.067560000000     0.777170000000     0          
O        O      0.458040000000     0.054980000000     0.833570000000     0          
O        O      0.443840000000     0.221820000000     0.932590000000     0          
O        O      0.845580000000     0.221960000000     0.666580000000     0          
O        O      0.349090000000     0.258760000000     0.111250000000     0          
O        O      0.241930000000     0.388780000000     0.071260000000     0          
O        O      0.185700000000     0.110430000000     0.539160000000     0          
O        O      0.056110000000     0.654280000000     0.278940000000     0          
O        O      0.832310000000     0.544230000000     0.610510000000     0          
O        O      0.777490000000     0.539130000000     0.630870000000     0          
O        O      0.722350000000     0.543730000000     0.611080000000     0          
O        O      0.666740000000     0.539530000000     0.592290000000     0          
O        O      0.111600000000     0.539480000000     0.593320000000     0          
O        O      0.555570000000     0.044600000000     0.110480000000     0          
O        O      0.685860000000     0.818050000000     0.610740000000     0          
O        O      0.702800000000     0.650520000000     0.778020000000     0          
O        O      0.738190000000     0.611120000000     0.685530000000     0          
O        O      0.778040000000     0.703080000000     0.571420000000     0          
O        O      0.333140000000     0.178750000000     0.555140000000     0          
O        O      0.332780000000     0.265740000000     0.555340000000     0          
O        O      0.932440000000     0.666700000000     0.777170000000     0          
O        O      0.945020000000     0.458040000000     0.833570000000     0          
O        O      0.778180000000     0.443840000000     0.932590000000     0          
O        O      0.778040000000     0.845580000000     0.666580000000     0          
O        O      0.741240000000     0.349090000000     0.111250000000     0          
O        O      0.611220000000     0.241930000000     0.071260000000     0          
O        O      0.889570000000     0.185700000000     0.539160000000     0          
O        O      0.345720000000     0.056110000000     0.278940000000     0          
O        O      0.389490000000     0.455770000000     0.167690000000     0          
O        O      0.369130000000     0.460870000000     0.222510000000     0          
O        O      0.388920000000     0.456270000000     0.277650000000     0          
O        O      0.407710000000     0.460470000000     0.333260000000     0          
O        O      0.406680000000     0.460520000000     0.888400000000     0          
O        O      0.889520000000     0.955400000000     0.444430000000     0          
O        O      0.389260000000     0.181950000000     0.314140000000     0          
O        O      0.221980000000     0.349480000000     0.297200000000     0          
O        O      0.314470000000     0.388880000000     0.261810000000     0          
O        O      0.428580000000     0.296920000000     0.221960000000     0          
O        O      0.444860000000     0.821250000000     0.666860000000     0          
O        O      0.444660000000     0.734260000000     0.667220000000     0          
O        O      0.222830000000     0.333300000000     0.067560000000     0          
O        O      0.166430000000     0.541960000000     0.054980000000     0          
O        O      0.067410000000     0.556160000000     0.221820000000     0          
O        O      0.333420000000     0.154420000000     0.221960000000     0          
O        O      0.888750000000     0.650910000000     0.258760000000     0          
O        O      0.928740000000     0.758070000000     0.388780000000     0          
O        O      0.460840000000     0.814300000000     0.110430000000     0          
O        O      0.721060000000     0.943890000000     0.654280000000     0          
O        O      0.389490000000     0.544230000000     0.832310000000     0          
O        O      0.369130000000     0.539130000000     0.777490000000     0          
O        O      0.388920000000     0.543730000000     0.722350000000     0          
O        O      0.407710000000     0.539530000000     0.666740000000     0          
O        O      0.406680000000     0.539480000000     0.111600000000     0          
O        O      0.889520000000     0.044600000000     0.555570000000     0          
O        O      0.389260000000     0.818050000000     0.685860000000     0          
O        O      0.221980000000     0.650520000000     0.702800000000     0          
O        O      0.314470000000     0.611120000000     0.738190000000     0          
O        O      0.428580000000     0.703080000000     0.778040000000     0          
O        O      0.444860000000     0.178750000000     0.333140000000     0          
O        O      0.444660000000     0.265740000000     0.332780000000     0          
O        O      0.222830000000     0.666700000000     0.932440000000     0          
O        O      0.166430000000     0.458040000000     0.945020000000     0          
O        O      0.067410000000     0.443840000000     0.778180000000     0          
O        O      0.333420000000     0.845580000000     0.778040000000     0          
O        O      0.888750000000     0.349090000000     0.741240000000     0          
O        O      0.928740000000     0.241930000000     0.611220000000     0          
O        O      0.460840000000     0.185700000000     0.889570000000     0          
O        O      0.721060000000     0.056110000000     0.345720000000     0          
O        O      0.455770000000     0.389490000000     0.832310000000     0          
O        O      0.460870000000     0.369130000000     0.777490000000     0          
O        O      0.456270000000     0.388920000000     0.722350000000     0          
O        O      0.460470000000     0.407710000000     0.666740000000     0          
O        O      0.460520000000     0.406680000000     0.111600000000     0          
O        O      0.955400000000     0.889520000000     0.555570000000     0          
O        O      0.181950000000     0.389260000000     0.685860000000     0          
O        O      0.349480000000     0.221980000000     0.702800000000     0          
O        O      0.388880000000     0.314470000000     0.738190000000     0          
O        O      0.296920000000     0.428580000000     0.778040000000     0          
O        O      0.821250000000     0.444860000000     0.333140000000     0          
O        O      0.734260000000     0.444660000000     0.332780000000     0          
O        O      0.333300000000     0.222830000000     0.932440000000     0          
O        O      0.541960000000     0.166430000000     0.945020000000     0          
O        O      0.556160000000     0.067410000000     0.778180000000     0          
O        O      0.154420000000     0.333420000000     0.778040000000     0          
O        O      0.650910000000     0.888750000000     0.741240000000     0          
O        O      0.758070000000     0.928740000000     0.611220000000     0          
O        O      0.814300000000     0.460840000000     0.889570000000     0          
O        O      0.943890000000     0.721060000000     0.345720000000     0          
O        O      0.610510000000     0.455770000000     0.832310000000     0          
O        O      0.630870000000     0.460870000000     0.777490000000     0          
O        O      0.611080000000     0.456270000000     0.722350000000     0          
O        O      0.592290000000     0.460470000000     0.666740000000     0          
O        O      0.593320000000     0.460520000000     0.111600000000     0          
O        O      0.110480000000     0.955400000000     0.555570000000     0          
O        O      0.610740000000     0.181950000000     0.685860000000     0          
O        O      0.778020000000     0.349480000000     0.702800000000     0          
O        O      0.685530000000     0.388880000000     0.738190000000     0          
O        O      0.571420000000     0.296920000000     0.778040000000     0          
O        O      0.555140000000     0.821250000000     0.333140000000     0          
O        O      0.555340000000     0.734260000000     0.332780000000     0          
O        O      0.777170000000     0.333300000000     0.932440000000     0          
O        O      0.833570000000     0.541960000000     0.945020000000     0          
O        O      0.932590000000     0.556160000000     0.778180000000     0          
O        O      0.666580000000     0.154420000000     0.778040000000     0          
O        O      0.111250000000     0.650910000000     0.741240000000     0          
O        O      0.071260000000     0.758070000000     0.611220000000     0          
O        O      0.539160000000     0.814300000000     0.889570000000     0          
O        O      0.278940000000     0.943890000000     0.345720000000     0          
O        O      0.544230000000     0.610510000000     0.832310000000     0          
O        O      0.539130000000     0.630870000000     0.777490000000     0          
O        O      0.543730000000     0.611080000000     0.722350000000     0          
O        O      0.539530000000     0.592290000000     0.666740000000     0          
O        O      0.539480000000     0.593320000000     0.111600000000     0          
O        O      0.044600000000     0.110480000000     0.555570000000     0          
O        O      0.818050000000     0.610740000000     0.685860000000     0          
O        O      0.650520000000     0.778020000000     0.702800000000     0          
O        O      0.611120000000     0.685530000000     0.738190000000     0          
O        O      0.703080000000     0.571420000000     0.778040000000     0          
O        O      0.178750000000     0.555140000000     0.333140000000     0          
O        O      0.265740000000     0.555340000000     0.332780000000     0          
O        O      0.666700000000     0.777170000000     0.932440000000     0          
O        O      0.458040000000     0.833570000000     0.945020000000     0          
O        O      0.443840000000     0.932590000000     0.778180000000     0          
O        O      0.845580000000     0.666580000000     0.778040000000     0          
O        O      0.349090000000     0.111250000000     0.741240000000     0          
O        O      0.241930000000     0.071260000000     0.611220000000     0          
O        O      0.185700000000     0.539160000000     0.889570000000     0          
O        O      0.056110000000     0.278940000000     0.345720000000     0          
O        O      0.610510000000     0.544230000000     0.167690000000     0          
O        O      0.630870000000     0.539130000000     0.222510000000     0          
O        O      0.611080000000     0.543730000000     0.277650000000     0          
O        O      0.592290000000     0.539530000000     0.333260000000     0          
O        O      0.593320000000     0.539480000000     0.888400000000     0          
O        O      0.110480000000     0.044600000000     0.444430000000     0          
O        O      0.610740000000     0.818050000000     0.314140000000     0          
O        O      0.778020000000     0.650520000000     0.297200000000     0          
O        O      0.685530000000     0.611120000000     0.261810000000     0          
O        O      0.571420000000     0.703080000000     0.221960000000     0          
O        O      0.555140000000     0.178750000000     0.666860000000     0          
O        O      0.555340000000     0.265740000000     0.667220000000     0          
O        O      0.777170000000     0.666700000000     0.067560000000     0          
O        O      0.833570000000     0.458040000000     0.054980000000     0          
O        O      0.932590000000     0.443840000000     0.221820000000     0          
O        O      0.666580000000     0.845580000000     0.221960000000     0          
O        O      0.111250000000     0.349090000000     0.258760000000     0          
O        O      0.071260000000     0.241930000000     0.388780000000     0          
O        O      0.539160000000     0.185700000000     0.110430000000     0          
O        O      0.278940000000     0.056110000000     0.654280000000     0          
O        O      0.455770000000     0.610510000000     0.167690000000     0          
O        O      0.460870000000     0.630870000000     0.222510000000     0          
O        O      0.456270000000     0.611080000000     0.277650000000     0          
O        O      0.460470000000     0.592290000000     0.333260000000     0          
O        O      0.460520000000     0.593320000000     0.888400000000     0          
O        O      0.955400000000     0.110480000000     0.444430000000     0          
O        O      0.181950000000     0.610740000000     0.314140000000     0          
O        O      0.349480000000     0.778020000000     0.297200000000     0          
O        O      0.388880000000     0.685530000000     0.261810000000     0          
O        O      0.296920000000     0.571420000000     0.221960000000     0          
O        O      0.821250000000     0.555140000000     0.666860000000     0          
O        O      0.734260000000     0.555340000000     0.667220000000     0          
O        O      0.333300000000     0.777170000000     0.067560000000     0          
O        O      0.541960000000     0.833570000000     0.054980000000     0          
O        O      0.556160000000     0.932590000000     0.221820000000     0          
O        O      0.154420000000     0.666580000000     0.221960000000     0          
O        O      0.650910000000     0.111250000000     0.258760000000     0          
O        O      0.758070000000     0.071260000000     0.388780000000     0          
O        O      0.814300000000     0.539160000000     0.110430000000     0          
O        O      0.943890000000     0.278940000000     0.654280000000     0          
O        O      0.544230000000     0.389490000000     0.167690000000     0          
O        O      0.539130000000     0.369130000000     0.222510000000     0          
O        O      0.543730000000     0.388920000000     0.277650000000     0          
O        O      0.539530000000     0.407710000000     0.333260000000     0          
O        O      0.539480000000     0.406680000000     0.888400000000     0          
O        O      0.044600000000     0.889520000000     0.444430000000     0          
O        O      0.818050000000     0.389260000000     0.314140000000     0          
O        O      0.650520000000     0.221980000000     0.297200000000     0          
O        O      0.611120000000     0.314470000000     0.261810000000     0          
O        O      0.703080000000     0.428580000000     0.221960000000     0          
O        O      0.178750000000     0.444860000000     0.666860000000     0          
O        O      0.265740000000     0.444660000000     0.667220000000     0          
O        O      0.666700000000     0.222830000000     0.067560000000     0          
O        O      0.458040000000     0.166430000000     0.054980000000     0          
O        O      0.443840000000     0.067410000000     0.221820000000     0          
O        O      0.845580000000     0.333420000000     0.221960000000     0          
O        O      0.349090000000     0.888750000000     0.258760000000     0          
O        O      0.241930000000     0.928740000000     0.388780000000     0          
O        O      0.185700000000     0.460840000000     0.110430000000     0          
O        O      0.056110000000     0.721060000000     0.654280000000     0          
O        O      0.332310000000     0.110510000000     0.044230000000     0          
O        O      0.277490000000     0.130870000000     0.039130000000     0          
O        O      0.222350000000     0.111080000000     0.043730000000     0          
O        O      0.166740000000     0.092290000000     0.039530000000     0          
O        O      0.611600000000     0.093320000000     0.039480000000     0          
O        O      0.055570000000     0.610480000000     0.544600000000     0          
O        O      0.185860000000     0.110740000000     0.318050000000     0          
O        O      0.202800000000     0.278020000000     0.150520000000     0          
O        O      0.238190000000     0.185530000000     0.111120000000     0          
O        O      0.278040000000     0.071420000000     0.203080000000     0          
O        O      0.833140000000     0.055140000000     0.678750000000     0          
O        O      0.832780000000     0.055340000000     0.765740000000     0          
O        O      0.432440000000     0.277170000000     0.166700000000     0          
O        O      0.445020000000     0.333570000000     0.958040000000     0          
O        O      0.278180000000     0.432590000000     0.943840000000     0          
O        O      0.278040000000     0.166580000000     0.345580000000     0          
O        O      0.241240000000     0.611250000000     0.849090000000     0          
O        O      0.111220000000     0.571260000000     0.741930000000     0          
O        O      0.389570000000     0.039160000000     0.685700000000     0          
O        O      0.845720000000     0.778940000000     0.556110000000     0          
O        O      0.318470000000     0.853270000000     0.000000000000     0          
O        O      0.429200000000     0.295530000000     0.000000000000     0          
O        O      0.071640000000     0.575800000000     0.500000000000     0          
O        O      0.040760000000     0.645810000000     0.500000000000     0          
O        O      0.348590000000     0.075470000000     0.000000000000     0          
O        O      0.236890000000     0.147600000000     0.000000000000     0          
O        O      0.206740000000     0.075080000000     0.000000000000     0          
O        O      0.126790000000     0.075030000000     0.000000000000     0          
O        O      0.349550000000     0.000000000000     0.703590000000     0          
O        O      0.070030000000     0.554490000000     0.554490000000     0          
O        O      0.346730000000     0.054620000000     0.054620000000     0          
O        O      0.209470000000     0.054960000000     0.054960000000     0          
O        O      0.834810000000     0.834810000000     0.542010000000     0          
O        O      0.165730000000     0.165730000000     0.321020000000     0          
O        O      0.223220000000     0.223220000000     0.068550000000     0          
O        O      0.111350000000     0.111350000000     0.043550000000     0          
O        O      0.222850000000     0.153860000000     0.222850000000     0          
O        O      0.123920000000     0.055160000000     0.055160000000     0          
O        O      0.234550000000     0.166680000000     0.166680000000     0          
O        O      0.000000000000     0.628530000000     0.538760000000     0          
O        O      0.889490000000     0.332310000000     0.044230000000     0          
O        O      0.869130000000     0.277490000000     0.039130000000     0          
O        O      0.888920000000     0.222350000000     0.043730000000     0          
O        O      0.907710000000     0.166740000000     0.039530000000     0          
O        O      0.906680000000     0.611600000000     0.039480000000     0          
O        O      0.389520000000     0.055570000000     0.544600000000     0          
O        O      0.889260000000     0.185860000000     0.318050000000     0          
O        O      0.721980000000     0.202800000000     0.150520000000     0          
O        O      0.814470000000     0.238190000000     0.111120000000     0          
O        O      0.928580000000     0.278040000000     0.203080000000     0          
O        O      0.944860000000     0.833140000000     0.678750000000     0          
O        O      0.944660000000     0.832780000000     0.765740000000     0          
O        O      0.722830000000     0.432440000000     0.166700000000     0          
O        O      0.666430000000     0.445020000000     0.958040000000     0          
O        O      0.567410000000     0.278180000000     0.943840000000     0          
O        O      0.833420000000     0.278040000000     0.345580000000     0          
O        O      0.388750000000     0.241240000000     0.849090000000     0          
O        O      0.428740000000     0.111220000000     0.741930000000     0          
O        O      0.960840000000     0.389570000000     0.685700000000     0          
O        O      0.221060000000     0.845720000000     0.556110000000     0          
O        O      0.146730000000     0.318470000000     0.000000000000     0          
O        O      0.704470000000     0.429200000000     0.000000000000     0          
O        O      0.424200000000     0.071640000000     0.500000000000     0          
O        O      0.354190000000     0.040760000000     0.500000000000     0          
O        O      0.924530000000     0.348590000000     0.000000000000     0          
O        O      0.852400000000     0.236890000000     0.000000000000     0          
O        O      0.924920000000     0.206740000000     0.000000000000     0          
O        O      0.924970000000     0.126790000000     0.000000000000     0          
O        O      0.000000000000     0.349550000000     0.703590000000     0          
O        O      0.445510000000     0.070030000000     0.554490000000     0          
O        O      0.945380000000     0.346730000000     0.054620000000     0          
O        O      0.945040000000     0.209470000000     0.054960000000     0          
O        O      0.165190000000     0.834810000000     0.542010000000     0          
O        O      0.834270000000     0.165730000000     0.321020000000     0          
O        O      0.776780000000     0.223220000000     0.068550000000     0          
O        O      0.888650000000     0.111350000000     0.043550000000     0          
O        O      0.846140000000     0.222850000000     0.222850000000     0          
O        O      0.944840000000     0.123920000000     0.055160000000     0          
O        O      0.833320000000     0.234550000000     0.166680000000     0          
O        O      0.371470000000     0.000000000000     0.538760000000     0          
O        O      0.667690000000     0.889490000000     0.044230000000     0          
O        O      0.722510000000     0.869130000000     0.039130000000     0          
O        O      0.777650000000     0.888920000000     0.043730000000     0          
O        O      0.833260000000     0.907710000000     0.039530000000     0          
O        O      0.388400000000     0.906680000000     0.039480000000     0          
O        O      0.944430000000     0.389520000000     0.544600000000     0          
O        O      0.814140000000     0.889260000000     0.318050000000     0          
O        O      0.797200000000     0.721980000000     0.150520000000     0          
O        O      0.761810000000     0.814470000000     0.111120000000     0          
O        O      0.721960000000     0.928580000000     0.203080000000     0          
O        O      0.166860000000     0.944860000000     0.678750000000     0          
O        O      0.167220000000     0.944660000000     0.765740000000     0          
O        O      0.567560000000     0.722830000000     0.166700000000     0          
O        O      0.554980000000     0.666430000000     0.958040000000     0          
O        O      0.721820000000     0.567410000000     0.943840000000     0          
O        O      0.721960000000     0.833420000000     0.345580000000     0          
O        O      0.758760000000     0.388750000000     0.849090000000     0          
O        O      0.888780000000     0.428740000000     0.741930000000     0          
O        O      0.610430000000     0.960840000000     0.685700000000     0          
O        O      0.154280000000     0.221060000000     0.556110000000     0          
O        O      0.681530000000     0.146730000000     0.000000000000     0          
O        O      0.570800000000     0.704470000000     0.000000000000     0          
O        O      0.928360000000     0.424200000000     0.500000000000     0          
O        O      0.959240000000     0.354190000000     0.500000000000     0          
O        O      0.651410000000     0.924530000000     0.000000000000     0          
O        O      0.763110000000     0.852400000000     0.000000000000     0          
O        O      0.793260000000     0.924920000000     0.000000000000     0          
O        O      0.873210000000     0.924970000000     0.000000000000     0          
O        O      0.650450000000     0.000000000000     0.703590000000     0          
O        O      0.929970000000     0.445510000000     0.554490000000     0          
O        O      0.653270000000     0.945380000000     0.054620000000     0          
O        O      0.790530000000     0.945040000000     0.054960000000     0          
O        O      0.165190000000     0.165190000000     0.542010000000     0          
O        O      0.834270000000     0.834270000000     0.321020000000     0          
O        O      0.776780000000     0.776780000000     0.068550000000     0          
O        O      0.888650000000     0.888650000000     0.043550000000     0          
O        O      0.777150000000     0.846140000000     0.222850000000     0          
O        O      0.876080000000     0.944840000000     0.055160000000     0          
O        O      0.765450000000     0.833320000000     0.166680000000     0          
O        O      0.000000000000     0.371470000000     0.538760000000     0          
O        O      0.110510000000     0.667690000000     0.044230000000     0          
O        O      0.130870000000     0.722510000000     0.039130000000     0          
O        O      0.111080000000     0.777650000000     0.043730000000     0          
O        O      0.092290000000     0.833260000000     0.039530000000     0          
O        O      0.093320000000     0.388400000000     0.039480000000     0          
O        O      0.610480000000     0.944430000000     0.544600000000     0          
O        O      0.110740000000     0.814140000000     0.318050000000     0          
O        O      0.278020000000     0.797200000000     0.150520000000     0          
O        O      0.185530000000     0.761810000000     0.111120000000     0          
O        O      0.071420000000     0.721960000000     0.203080000000     0          
O        O      0.055140000000     0.166860000000     0.678750000000     0          
O        O      0.055340000000     0.167220000000     0.765740000000     0          
O        O      0.277170000000     0.567560000000     0.166700000000     0          
O        O      0.333570000000     0.554980000000     0.958040000000     0          
O        O      0.432590000000     0.721820000000     0.943840000000     0          
O        O      0.166580000000     0.721960000000     0.345580000000     0          
O        O      0.611250000000     0.758760000000     0.849090000000     0          
O        O      0.571260000000     0.888780000000     0.741930000000     0          
O        O      0.039160000000     0.610430000000     0.685700000000     0          
O        O      0.778940000000     0.154280000000     0.556110000000     0          
O        O      0.853270000000     0.681530000000     0.000000000000     0          
O        O      0.295530000000     0.570800000000     0.000000000000     0          
O        O      0.575800000000     0.928360000000     0.500000000000     0          
O        O      0.645810000000     0.959240000000     0.500000000000     0          
O        O      0.075470000000     0.651410000000     0.000000000000     0          
O        O      0.147600000000     0.763110000000     0.000000000000     0          
O        O      0.075080000000     0.793260000000     0.000000000000     0          
O        O      0.075030000000     0.873210000000     0.000000000000     0          
O        O      0.000000000000     0.650450000000     0.703590000000     0          
O        O      0.554490000000     0.929970000000     0.554490000000     0          
O        O      0.054620000000     0.653270000000     0.054620000000     0          
O        O      0.054960000000     0.790530000000     0.054960000000     0          
O        O      0.834810000000     0.165190000000     0.542010000000     0          
O        O      0.165730000000     0.834270000000     0.321020000000     0          
O        O      0.223220000000     0.776780000000     0.068550000000     0          
O        O      0.111350000000     0.888650000000     0.043550000000     0          
O        O      0.153860000000     0.777150000000     0.222850000000     0          
O        O      0.055160000000     0.876080000000     0.055160000000     0          
O        O      0.166680000000     0.765450000000     0.166680000000     0          
O        O      0.628530000000     0.000000000000     0.538760000000     0          
O        O      0.332310000000     0.889490000000     0.955770000000     0          
O        O      0.277490000000     0.869130000000     0.960870000000     0          
O        O      0.222350000000     0.888920000000     0.956270000000     0          
O        O      0.166740000000     0.907710000000     0.960470000000     0          
O        O      0.611600000000     0.906680000000     0.960520000000     0          
O        O      0.055570000000     0.389520000000     0.455400000000     0          
O        O      0.185860000000     0.889260000000     0.681950000000     0          
O        O      0.202800000000     0.721980000000     0.849480000000     0          
O        O      0.238190000000     0.814470000000     0.888880000000     0          
O        O      0.278040000000     0.928580000000     0.796920000000     0          
O        O      0.833140000000     0.944860000000     0.321250000000     0          
O        O      0.832780000000     0.944660000000     0.234260000000     0          
O        O      0.432440000000     0.722830000000     0.833300000000     0          
O        O      0.445020000000     0.666430000000     0.041960000000     0          
O        O      0.278180000000     0.567410000000     0.056160000000     0          
O        O      0.278040000000     0.833420000000     0.654420000000     0          
O        O      0.241240000000     0.388750000000     0.150910000000     0          
O        O      0.111220000000     0.428740000000     0.258070000000     0          
O        O      0.389570000000     0.960840000000     0.314300000000     0          
O        O      0.845720000000     0.221060000000     0.443890000000     0          
O        O      0.318470000000     0.146730000000     0.000000000000     0          
O        O      0.429200000000     0.704470000000     0.000000000000     0          
O        O      0.071640000000     0.424200000000     0.500000000000     0          
O        O      0.040760000000     0.354190000000     0.500000000000     0          
O        O      0.348590000000     0.924530000000     0.000000000000     0          
O        O      0.236890000000     0.852400000000     0.000000000000     0          
O        O      0.206740000000     0.924920000000     0.000000000000     0          
O        O      0.126790000000     0.924970000000     0.000000000000     0          
O        O      0.349550000000     0.000000000000     0.296410000000     0          
O        O      0.070030000000     0.445510000000     0.445510000000     0          
O        O      0.346730000000     0.945380000000     0.945380000000     0          
O        O      0.209470000000     0.945040000000     0.945040000000     0          
O        O      0.834810000000     0.165190000000     0.457990000000     0          
O        O      0.165730000000     0.834270000000     0.678980000000     0          
O        O      0.223220000000     0.776780000000     0.931450000000     0          
O        O      0.111350000000     0.888650000000     0.956450000000     0          
O        O      0.222850000000     0.846140000000     0.777150000000     0          
O        O      0.123920000000     0.944840000000     0.944840000000     0          
O        O      0.234550000000     0.833320000000     0.833320000000     0          
O        O      0.000000000000     0.371470000000     0.461240000000     0          
O        O      0.110510000000     0.332310000000     0.955770000000     0          
O        O      0.130870000000     0.277490000000     0.960870000000     0          
O        O      0.111080000000     0.222350000000     0.956270000000     0          
O        O      0.092290000000     0.166740000000     0.960470000000     0          
O        O      0.093320000000     0.611600000000     0.960520000000     0          
O        O      0.610480000000     0.055570000000     0.455400000000     0          
O        O      0.110740000000     0.185860000000     0.681950000000     0          
O        O      0.278020000000     0.202800000000     0.849480000000     0          
O        O      0.185530000000     0.238190000000     0.888880000000     0          
O        O      0.071420000000     0.278040000000     0.796920000000     0          
O        O      0.055140000000     0.833140000000     0.321250000000     0          
O        O      0.055340000000     0.832780000000     0.234260000000     0          
O        O      0.277170000000     0.432440000000     0.833300000000     0          
O        O      0.333570000000     0.445020000000     0.041960000000     0          
O        O      0.432590000000     0.278180000000     0.056160000000     0          
O        O      0.166580000000     0.278040000000     0.654420000000     0          
O        O      0.611250000000     0.241240000000     0.150910000000     0          
O        O      0.571260000000     0.111220000000     0.258070000000     0          
O        O      0.039160000000     0.389570000000     0.314300000000     0          
O        O      0.778940000000     0.845720000000     0.443890000000     0          
O        O      0.853270000000     0.318470000000     0.000000000000     0          
O        O      0.295530000000     0.429200000000     0.000000000000     0          
O        O      0.575800000000     0.071640000000     0.500000000000     0          
O        O      0.645810000000     0.040760000000     0.500000000000     0          
O        O      0.075470000000     0.348590000000     0.000000000000     0          
O        O      0.147600000000     0.236890000000     0.000000000000     0          
O        O      0.075080000000     0.206740000000     0.000000000000     0          
O        O      0.075030000000     0.126790000000     0.000000000000     0          
O        O      0.000000000000     0.349550000000     0.296410000000     0          
O        O      0.554490000000     0.070030000000     0.445510000000     0          
O        O      0.054620000000     0.346730000000     0.945380000000     0          
O        O      0.054960000000     0.209470000000     0.945040000000     0          
O        O      0.834810000000     0.834810000000     0.457990000000     0          
O        O      0.165730000000     0.165730000000     0.678980000000     0          
O        O      0.223220000000     0.223220000000     0.931450000000     0          
O        O      0.111350000000     0.111350000000     0.956450000000     0          
O        O      0.153860000000     0.222850000000     0.777150000000     0          
O        O      0.055160000000     0.123920000000     0.944840000000     0          
O        O      0.166680000000     0.234550000000     0.833320000000     0          
O        O      0.628530000000     0.000000000000     0.461240000000     0          
O        O      0.667690000000     0.110510000000     0.955770000000     0          
O        O      0.722510000000     0.130870000000     0.960870000000     0          
O        O      0.777650000000     0.111080000000     0.956270000000     0          
O        O      0.833260000000     0.092290000000     0.960470000000     0          
O        O      0.388400000000     0.093320000000     0.960520000000     0          
O        O      0.944430000000     0.610480000000     0.455400000000     0          
O        O      0.814140000000     0.110740000000     0.681950000000     0          
O        O      0.797200000000     0.278020000000     0.849480000000     0          
O        O      0.761810000000     0.185530000000     0.888880000000     0          
O        O      0.721960000000     0.071420000000     0.796920000000     0          
O        O      0.166860000000     0.055140000000     0.321250000000     0          
O        O      0.167220000000     0.055340000000     0.234260000000     0          
O        O      0.567560000000     0.277170000000     0.833300000000     0          
O        O      0.554980000000     0.333570000000     0.041960000000     0          
O        O      0.721820000000     0.432590000000     0.056160000000     0          
O        O      0.721960000000     0.166580000000     0.654420000000     0          
O        O      0.758760000000     0.611250000000     0.150910000000     0          
O        O      0.888780000000     0.571260000000     0.258070000000     0          
O        O      0.610430000000     0.039160000000     0.314300000000     0          
O        O      0.154280000000     0.778940000000     0.443890000000     0          
O        O      0.681530000000     0.853270000000     0.000000000000     0          
O        O      0.570800000000     0.295530000000     0.000000000000     0          
O        O      0.928360000000     0.575800000000     0.500000000000     0          
O        O      0.959240000000     0.645810000000     0.500000000000     0          
O        O      0.651410000000     0.075470000000     0.000000000000     0          
O        O      0.763110000000     0.147600000000     0.000000000000     0          
O        O      0.793260000000     0.075080000000     0.000000000000     0          
O        O      0.873210000000     0.075030000000     0.000000000000     0          
O        O      0.650450000000     0.000000000000     0.296410000000     0          
O        O      0.929970000000     0.554490000000     0.445510000000     0          
O        O      0.653270000000     0.054620000000     0.945380000000     0          
O        O      0.790530000000     0.054960000000     0.945040000000     0          
O        O      0.165190000000     0.834810000000     0.457990000000     0          
O        O      0.834270000000     0.165730000000     0.678980000000     0          
O        O      0.776780000000     0.223220000000     0.931450000000     0          
O        O      0.888650000000     0.111350000000     0.956450000000     0          
O        O      0.777150000000     0.153860000000     0.777150000000     0          
O        O      0.876080000000     0.055160000000     0.944840000000     0          
O        O      0.765450000000     0.166680000000     0.833320000000     0          
O        O      0.000000000000     0.628530000000     0.461240000000     0          
O        O      0.889490000000     0.667690000000     0.955770000000     0          
O        O      0.869130000000     0.722510000000     0.960870000000     0          
O        O      0.888920000000     0.777650000000     0.956270000000     0          
O        O      0.907710000000     0.833260000000     0.960470000000     0          
O        O      0.906680000000     0.388400000000     0.960520000000     0          
O        O      0.389520000000     0.944430000000     0.455400000000     0          
O        O      0.889260000000     0.814140000000     0.681950000000     0          
O        O      0.721980000000     0.797200000000     0.849480000000     0          
O        O      0.814470000000     0.761810000000     0.888880000000     0          
O        O      0.928580000000     0.721960000000     0.796920000000     0          
O        O      0.944860000000     0.166860000000     0.321250000000     0          
O        O      0.944660000000     0.167220000000     0.234260000000     0          
O        O      0.722830000000     0.567560000000     0.833300000000     0          
O        O      0.666430000000     0.554980000000     0.041960000000     0          
O        O      0.567410000000     0.721820000000     0.056160000000     0          
O        O      0.833420000000     0.721960000000     0.654420000000     0          
O        O      0.388750000000     0.758760000000     0.150910000000     0          
O        O      0.428740000000     0.888780000000     0.258070000000     0          
O        O      0.960840000000     0.610430000000     0.314300000000     0          
O        O      0.221060000000     0.154280000000     0.443890000000     0          
O        O      0.146730000000     0.681530000000     0.000000000000     0          
O        O      0.704470000000     0.570800000000     0.000000000000     0          
O        O      0.424200000000     0.928360000000     0.500000000000     0          
O        O      0.354190000000     0.959240000000     0.500000000000     0          
O        O      0.924530000000     0.651410000000     0.000000000000     0          
O        O      0.852400000000     0.763110000000     0.000000000000     0          
O        O      0.924920000000     0.793260000000     0.000000000000     0          
O        O      0.924970000000     0.873210000000     0.000000000000     0          
O        O      0.000000000000     0.650450000000     0.296410000000     0          
O        O      0.445510000000     0.929970000000     0.445510000000     0          
O        O      0.945380000000     0.653270000000     0.945380000000     0          
O        O      0.945040000000     0.790530000000     0.945040000000     0          
O        O      0.165190000000     0.165190000000     0.457990000000     0          
O        O      0.834270000000     0.834270000000     0.678980000000     0          
O        O      0.776780000000     0.776780000000     0.931450000000     0          
O        O      0.888650000000     0.888650000000     0.956450000000     0          
O        O      0.846140000000     0.777150000000     0.777150000000     0          
O        O      0.944840000000     0.876080000000     0.944840000000     0          
O        O      0.833320000000     0.765450000000     0.833320000000     0          
O        O      0.371470000000     0.000000000000     0.461240000000     0          
O        O      0.044230000000     0.332310000000     0.110510000000     0          
O        O      0.039130000000     0.277490000000     0.130870000000     0          
O        O      0.043730000000     0.222350000000     0.111080000000     0          
O        O      0.039530000000     0.166740000000     0.092290000000     0          
O        O      0.039480000000     0.611600000000     0.093320000000     0          
O        O      0.544600000000     0.055570000000     0.610480000000     0          
O        O      0.318050000000     0.185860000000     0.110740000000     0          
O        O      0.150520000000     0.202800000000     0.278020000000     0          
O        O      0.111120000000     0.238190000000     0.185530000000     0          
O        O      0.203080000000     0.278040000000     0.071420000000     0          
O        O      0.678750000000     0.833140000000     0.055140000000     0          
O        O      0.765740000000     0.832780000000     0.055340000000     0          
O        O      0.166700000000     0.432440000000     0.277170000000     0          
O        O      0.958040000000     0.445020000000     0.333570000000     0          
O        O      0.943840000000     0.278180000000     0.432590000000     0          
O        O      0.345580000000     0.278040000000     0.166580000000     0          
O        O      0.849090000000     0.241240000000     0.611250000000     0          
O        O      0.741930000000     0.111220000000     0.571260000000     0          
O        O      0.685700000000     0.389570000000     0.039160000000     0          
O        O      0.556110000000     0.845720000000     0.778940000000     0          
O        O      0.000000000000     0.318470000000     0.853270000000     0          
O        O      0.000000000000     0.429200000000     0.295530000000     0          
O        O      0.500000000000     0.071640000000     0.575800000000     0          
O        O      0.500000000000     0.040760000000     0.645810000000     0          
O        O      0.000000000000     0.348590000000     0.075470000000     0          
O        O      0.000000000000     0.236890000000     0.147600000000     0          
O        O      0.000000000000     0.206740000000     0.075080000000     0          
O        O      0.000000000000     0.126790000000     0.075030000000     0          
O        O      0.703590000000     0.349550000000     0.000000000000     0          
O        O      0.554490000000     0.070030000000     0.554490000000     0          
O        O      0.054620000000     0.346730000000     0.054620000000     0          
O        O      0.054960000000     0.209470000000     0.054960000000     0          
O        O      0.542010000000     0.834810000000     0.834810000000     0          
O        O      0.321020000000     0.165730000000     0.165730000000     0          
O        O      0.068550000000     0.223220000000     0.223220000000     0          
O        O      0.043550000000     0.111350000000     0.111350000000     0          
O        O      0.222850000000     0.222850000000     0.153860000000     0          
O        O      0.055160000000     0.123920000000     0.055160000000     0          
O        O      0.166680000000     0.234550000000     0.166680000000     0          
O        O      0.538760000000     0.000000000000     0.628530000000     0          
O        O      0.667690000000     0.044230000000     0.110510000000     0          
O        O      0.722510000000     0.039130000000     0.130870000000     0          
O        O      0.777650000000     0.043730000000     0.111080000000     0          
O        O      0.833260000000     0.039530000000     0.092290000000     0          
O        O      0.388400000000     0.039480000000     0.093320000000     0          
O        O      0.944430000000     0.544600000000     0.610480000000     0          
O        O      0.814140000000     0.318050000000     0.110740000000     0          
O        O      0.797200000000     0.150520000000     0.278020000000     0          
O        O      0.761810000000     0.111120000000     0.185530000000     0          
O        O      0.721960000000     0.203080000000     0.071420000000     0          
O        O      0.166860000000     0.678750000000     0.055140000000     0          
O        O      0.167220000000     0.765740000000     0.055340000000     0          
O        O      0.567560000000     0.166700000000     0.277170000000     0          
O        O      0.554980000000     0.958040000000     0.333570000000     0          
O        O      0.721820000000     0.943840000000     0.432590000000     0          
O        O      0.721960000000     0.345580000000     0.166580000000     0          
O        O      0.758760000000     0.849090000000     0.611250000000     0          
O        O      0.888780000000     0.741930000000     0.571260000000     0          
O        O      0.610430000000     0.685700000000     0.039160000000     0          
O        O      0.154280000000     0.556110000000     0.778940000000     0          
O        O      0.681530000000     0.000000000000     0.853270000000     0          
O        O      0.570800000000     0.000000000000     0.295530000000     0          
O        O      0.928360000000     0.500000000000     0.575800000000     0          
O        O      0.959240000000     0.500000000000     0.645810000000     0          
O        O      0.651410000000     0.000000000000     0.075470000000     0          
O        O      0.763110000000     0.000000000000     0.147600000000     0          
O        O      0.793260000000     0.000000000000     0.075080000000     0          
O        O      0.873210000000     0.000000000000     0.075030000000     0          
O        O      0.650450000000     0.703590000000     0.000000000000     0          
O        O      0.929970000000     0.554490000000     0.554490000000     0          
O        O      0.653270000000     0.054620000000     0.054620000000     0          
O        O      0.790530000000     0.054960000000     0.054960000000     0          
O        O      0.165190000000     0.542010000000     0.834810000000     0          
O        O      0.834270000000     0.321020000000     0.165730000000     0          
O        O      0.776780000000     0.068550000000     0.223220000000     0          
O        O      0.888650000000     0.043550000000     0.111350000000     0          
O        O      0.777150000000     0.222850000000     0.153860000000     0          
O        O      0.876080000000     0.055160000000     0.055160000000     0          
O        O      0.765450000000     0.166680000000     0.166680000000     0          
O        O      0.000000000000     0.538760000000     0.628530000000     0          
O        O      0.955770000000     0.667690000000     0.110510000000     0          
O        O      0.960870000000     0.722510000000     0.130870000000     0          
O        O      0.956270000000     0.777650000000     0.111080000000     0          
O        O      0.960470000000     0.833260000000     0.092290000000     0          
O        O      0.960520000000     0.388400000000     0.093320000000     0          
O        O      0.455400000000     0.944430000000     0.610480000000     0          
O        O      0.681950000000     0.814140000000     0.110740000000     0          
O        O      0.849480000000     0.797200000000     0.278020000000     0          
O        O      0.888880000000     0.761810000000     0.185530000000     0          
O        O      0.796920000000     0.721960000000     0.071420000000     0          
O        O      0.321250000000     0.166860000000     0.055140000000     0          
O        O      0.234260000000     0.167220000000     0.055340000000     0          
O        O      0.833300000000     0.567560000000     0.277170000000     0          
O        O      0.041960000000     0.554980000000     0.333570000000     0          
O        O      0.056160000000     0.721820000000     0.432590000000     0          
O        O      0.654420000000     0.721960000000     0.166580000000     0          
O        O      0.150910000000     0.758760000000     0.611250000000     0          
O        O      0.258070000000     0.888780000000     0.571260000000     0          
O        O      0.314300000000     0.610430000000     0.039160000000     0          
O        O      0.443890000000     0.154280000000     0.778940000000     0          
O        O      0.000000000000     0.681530000000     0.853270000000     0          
O        O      0.000000000000     0.570800000000     0.295530000000     0          
O        O      0.500000000000     0.928360000000     0.575800000000     0          
O        O      0.500000000000     0.959240000000     0.645810000000     0          
O        O      0.000000000000     0.651410000000     0.075470000000     0          
O        O      0.000000000000     0.763110000000     0.147600000000     0          
O        O      0.000000000000     0.793260000000     0.075080000000     0          
O        O      0.000000000000     0.873210000000     0.075030000000     0          
O        O      0.296410000000     0.650450000000     0.000000000000     0          
O        O      0.445510000000     0.929970000000     0.554490000000     0          
O        O      0.945380000000     0.653270000000     0.054620000000     0          
O        O      0.945040000000     0.790530000000     0.054960000000     0          
O        O      0.457990000000     0.165190000000     0.834810000000     0          
O        O      0.678980000000     0.834270000000     0.165730000000     0          
O        O      0.931450000000     0.776780000000     0.223220000000     0          
O        O      0.956450000000     0.888650000000     0.111350000000     0          
O        O      0.777150000000     0.777150000000     0.153860000000     0          
O        O      0.944840000000     0.876080000000     0.055160000000     0          
O        O      0.833320000000     0.765450000000     0.166680000000     0          
O        O      0.461240000000     0.000000000000     0.628530000000     0          
O        O      0.332310000000     0.955770000000     0.110510000000     0          
O        O      0.277490000000     0.960870000000     0.130870000000     0          
O        O      0.222350000000     0.956270000000     0.111080000000     0          
O        O      0.166740000000     0.960470000000     0.092290000000     0          
O        O      0.611600000000     0.960520000000     0.093320000000     0          
O        O      0.055570000000     0.455400000000     0.610480000000     0          
O        O      0.185860000000     0.681950000000     0.110740000000     0          
O        O      0.202800000000     0.849480000000     0.278020000000     0          
O        O      0.238190000000     0.888880000000     0.185530000000     0          
O        O      0.278040000000     0.796920000000     0.071420000000     0          
O        O      0.833140000000     0.321250000000     0.055140000000     0          
O        O      0.832780000000     0.234260000000     0.055340000000     0          
O        O      0.432440000000     0.833300000000     0.277170000000     0          
O        O      0.445020000000     0.041960000000     0.333570000000     0          
O        O      0.278180000000     0.056160000000     0.432590000000     0          
O        O      0.278040000000     0.654420000000     0.166580000000     0          
O        O      0.241240000000     0.150910000000     0.611250000000     0          
O        O      0.111220000000     0.258070000000     0.571260000000     0          
O        O      0.389570000000     0.314300000000     0.039160000000     0          
O        O      0.845720000000     0.443890000000     0.778940000000     0          
O        O      0.318470000000     0.000000000000     0.853270000000     0          
O        O      0.429200000000     0.000000000000     0.295530000000     0          
O        O      0.071640000000     0.500000000000     0.575800000000     0          
O        O      0.040760000000     0.500000000000     0.645810000000     0          
O        O      0.348590000000     0.000000000000     0.075470000000     0          
O        O      0.236890000000     0.000000000000     0.147600000000     0          
O        O      0.206740000000     0.000000000000     0.075080000000     0          
O        O      0.126790000000     0.000000000000     0.075030000000     0          
O        O      0.349550000000     0.296410000000     0.000000000000     0          
O        O      0.070030000000     0.445510000000     0.554490000000     0          
O        O      0.346730000000     0.945380000000     0.054620000000     0          
O        O      0.209470000000     0.945040000000     0.054960000000     0          
O        O      0.834810000000     0.457990000000     0.834810000000     0          
O        O      0.165730000000     0.678980000000     0.165730000000     0          
O        O      0.223220000000     0.931450000000     0.223220000000     0          
O        O      0.111350000000     0.956450000000     0.111350000000     0          
O        O      0.222850000000     0.777150000000     0.153860000000     0          
O        O      0.123920000000     0.944840000000     0.055160000000     0          
O        O      0.234550000000     0.833320000000     0.166680000000     0          
O        O      0.000000000000     0.461240000000     0.628530000000     0          
O        O      0.044230000000     0.667690000000     0.889490000000     0          
O        O      0.039130000000     0.722510000000     0.869130000000     0          
O        O      0.043730000000     0.777650000000     0.888920000000     0          
O        O      0.039530000000     0.833260000000     0.907710000000     0          
O        O      0.039480000000     0.388400000000     0.906680000000     0          
O        O      0.544600000000     0.944430000000     0.389520000000     0          
O        O      0.318050000000     0.814140000000     0.889260000000     0          
O        O      0.150520000000     0.797200000000     0.721980000000     0          
O        O      0.111120000000     0.761810000000     0.814470000000     0          
O        O      0.203080000000     0.721960000000     0.928580000000     0          
O        O      0.678750000000     0.166860000000     0.944860000000     0          
O        O      0.765740000000     0.167220000000     0.944660000000     0          
O        O      0.166700000000     0.567560000000     0.722830000000     0          
O        O      0.958040000000     0.554980000000     0.666430000000     0          
O        O      0.943840000000     0.721820000000     0.567410000000     0          
O        O      0.345580000000     0.721960000000     0.833420000000     0          
O        O      0.849090000000     0.758760000000     0.388750000000     0          
O        O      0.741930000000     0.888780000000     0.428740000000     0          
O        O      0.685700000000     0.610430000000     0.960840000000     0          
O        O      0.556110000000     0.154280000000     0.221060000000     0          
O        O      0.000000000000     0.681530000000     0.146730000000     0          
O        O      0.000000000000     0.570800000000     0.704470000000     0          
O        O      0.500000000000     0.928360000000     0.424200000000     0          
O        O      0.500000000000     0.959240000000     0.354190000000     0          
O        O      0.000000000000     0.651410000000     0.924530000000     0          
O        O      0.000000000000     0.763110000000     0.852400000000     0          
O        O      0.000000000000     0.793260000000     0.924920000000     0          
O        O      0.000000000000     0.873210000000     0.924970000000     0          
O        O      0.703590000000     0.650450000000     0.000000000000     0          
O        O      0.554490000000     0.929970000000     0.445510000000     0          
O        O      0.054620000000     0.653270000000     0.945380000000     0          
O        O      0.054960000000     0.790530000000     0.945040000000     0          
O        O      0.542010000000     0.165190000000     0.165190000000     0          
O        O      0.321020000000     0.834270000000     0.834270000000     0          
O        O      0.068550000000     0.776780000000     0.776780000000     0          
O        O      0.043550000000     0.888650000000     0.888650000000     0          
O        O      0.222850000000     0.777150000000     0.846140000000     0          
O        O      0.055160000000     0.876080000000     0.944840000000     0          
O        O      0.166680000000     0.765450000000     0.833320000000     0          
O        O      0.538760000000     0.000000000000     0.371470000000     0          
O        O      0.332310000000     0.044230000000     0.889490000000     0          
O        O      0.277490000000     0.039130000000     0.869130000000     0          
O        O      0.222350000000     0.043730000000     0.888920000000     0          
O        O      0.166740000000     0.039530000000     0.907710000000     0          
O        O      0.611600000000     0.039480000000     0.906680000000     0          
O        O      0.055570000000     0.544600000000     0.389520000000     0          
O        O      0.185860000000     0.318050000000     0.889260000000     0          
O        O      0.202800000000     0.150520000000     0.721980000000     0          
O        O      0.238190000000     0.111120000000     0.814470000000     0          
O        O      0.278040000000     0.203080000000     0.928580000000     0          
O        O      0.833140000000     0.678750000000     0.944860000000     0          
O        O      0.832780000000     0.765740000000     0.944660000000     0          
O        O      0.432440000000     0.166700000000     0.722830000000     0          
O        O      0.445020000000     0.958040000000     0.666430000000     0          
O        O      0.278180000000     0.943840000000     0.567410000000     0          
O        O      0.278040000000     0.345580000000     0.833420000000     0          
O        O      0.241240000000     0.849090000000     0.388750000000     0          
O        O      0.111220000000     0.741930000000     0.428740000000     0          
O        O      0.389570000000     0.685700000000     0.960840000000     0          
O        O      0.845720000000     0.556110000000     0.221060000000     0          
O        O      0.318470000000     0.000000000000     0.146730000000     0          
O        O      0.429200000000     0.000000000000     0.704470000000     0          
O        O      0.071640000000     0.500000000000     0.424200000000     0          
O        O      0.040760000000     0.500000000000     0.354190000000     0          
O        O      0.348590000000     0.000000000000     0.924530000000     0          
O        O      0.236890000000     0.000000000000     0.852400000000     0          
O        O      0.206740000000     0.000000000000     0.924920000000     0          
O        O      0.126790000000     0.000000000000     0.924970000000     0          
O        O      0.349550000000     0.703590000000     0.000000000000     0          
O        O      0.070030000000     0.554490000000     0.445510000000     0          
O        O      0.346730000000     0.054620000000     0.945380000000     0          
O        O      0.209470000000     0.054960000000     0.945040000000     0          
O        O      0.834810000000     0.542010000000     0.165190000000     0          
O        O      0.165730000000     0.321020000000     0.834270000000     0          
O        O      0.223220000000     0.068550000000     0.776780000000     0          
O        O      0.111350000000     0.043550000000     0.888650000000     0          
O        O      0.222850000000     0.222850000000     0.846140000000     0          
O        O      0.123920000000     0.055160000000     0.944840000000     0          
O        O      0.234550000000     0.166680000000     0.833320000000     0          
O        O      0.000000000000     0.538760000000     0.371470000000     0          
O        O      0.955770000000     0.332310000000     0.889490000000     0          
O        O      0.960870000000     0.277490000000     0.869130000000     0          
O        O      0.956270000000     0.222350000000     0.888920000000     0          
O        O      0.960470000000     0.166740000000     0.907710000000     0          
O        O      0.960520000000     0.611600000000     0.906680000000     0          
O        O      0.455400000000     0.055570000000     0.389520000000     0          
O        O      0.681950000000     0.185860000000     0.889260000000     0          
O        O      0.849480000000     0.202800000000     0.721980000000     0          
O        O      0.888880000000     0.238190000000     0.814470000000     0          
O        O      0.796920000000     0.278040000000     0.928580000000     0          
O        O      0.321250000000     0.833140000000     0.944860000000     0          
O        O      0.234260000000     0.832780000000     0.944660000000     0          
O        O      0.833300000000     0.432440000000     0.722830000000     0          
O        O      0.041960000000     0.445020000000     0.666430000000     0          
O        O      0.056160000000     0.278180000000     0.567410000000     0          
O        O      0.654420000000     0.278040000000     0.833420000000     0          
O        O      0.150910000000     0.241240000000     0.388750000000     0          
O        O      0.258070000000     0.111220000000     0.428740000000     0          
O        O      0.314300000000     0.389570000000     0.960840000000     0          
O        O      0.443890000000     0.845720000000     0.221060000000     0          
O        O      0.000000000000     0.318470000000     0.146730000000     0          
O        O      0.000000000000     0.429200000000     0.704470000000     0          
O        O      0.500000000000     0.071640000000     0.424200000000     0          
O        O      0.500000000000     0.040760000000     0.354190000000     0          
O        O      0.000000000000     0.348590000000     0.924530000000     0          
O        O      0.000000000000     0.236890000000     0.852400000000     0          
O        O      0.000000000000     0.206740000000     0.924920000000     0          
O        O      0.000000000000     0.126790000000     0.924970000000     0          
O        O      0.296410000000     0.349550000000     0.000000000000     0          
O        O      0.445510000000     0.070030000000     0.445510000000     0          
O        O      0.945380000000     0.346730000000     0.945380000000     0          
O        O      0.945040000000     0.209470000000     0.945040000000     0          
O        O      0.457990000000     0.834810000000     0.165190000000     0          
O        O      0.678980000000     0.165730000000     0.834270000000     0          
O        O      0.931450000000     0.223220000000     0.776780000000     0          
O        O      0.956450000000     0.111350000000     0.888650000000     0          
O        O      0.777150000000     0.222850000000     0.846140000000     0          
O        O      0.944840000000     0.123920000000     0.944840000000     0          
O        O      0.833320000000     0.234550000000     0.833320000000     0          
O        O      0.461240000000     0.000000000000     0.371470000000     0          
O        O      0.667690000000     0.955770000000     0.889490000000     0          
O        O      0.722510000000     0.960870000000     0.869130000000     0          
O        O      0.777650000000     0.956270000000     0.888920000000     0          
O        O      0.833260000000     0.960470000000     0.907710000000     0          
O        O      0.388400000000     0.960520000000     0.906680000000     0          
O        O      0.944430000000     0.455400000000     0.389520000000     0          
O        O      0.814140000000     0.681950000000     0.889260000000     0          
O        O      0.797200000000     0.849480000000     0.721980000000     0          
O        O      0.761810000000     0.888880000000     0.814470000000     0          
O        O      0.721960000000     0.796920000000     0.928580000000     0          
O        O      0.166860000000     0.321250000000     0.944860000000     0          
O        O      0.167220000000     0.234260000000     0.944660000000     0          
O        O      0.567560000000     0.833300000000     0.722830000000     0          
O        O      0.554980000000     0.041960000000     0.666430000000     0          
O        O      0.721820000000     0.056160000000     0.567410000000     0          
O        O      0.721960000000     0.654420000000     0.833420000000     0          
O        O      0.758760000000     0.150910000000     0.388750000000     0          
O        O      0.888780000000     0.258070000000     0.428740000000     0          
O        O      0.610430000000     0.314300000000     0.960840000000     0          
O        O      0.154280000000     0.443890000000     0.221060000000     0          
O        O      0.681530000000     0.000000000000     0.146730000000     0          
O        O      0.570800000000     0.000000000000     0.704470000000     0          
O        O      0.928360000000     0.500000000000     0.424200000000     0          
O        O      0.959240000000     0.500000000000     0.354190000000     0          
O        O      0.651410000000     0.000000000000     0.924530000000     0          
O        O      0.763110000000     0.000000000000     0.852400000000     0          
O        O      0.793260000000     0.000000000000     0.924920000000     0          
O        O      0.873210000000     0.000000000000     0.924970000000     0          
O        O      0.650450000000     0.296410000000     0.000000000000     0          
O        O      0.929970000000     0.445510000000     0.445510000000     0          
O        O      0.653270000000     0.945380000000     0.945380000000     0          
O        O      0.790530000000     0.945040000000     0.945040000000     0          
O        O      0.165190000000     0.457990000000     0.165190000000     0          
O        O      0.834270000000     0.678980000000     0.834270000000     0          
O        O      0.776780000000     0.931450000000     0.776780000000     0          
O        O      0.888650000000     0.956450000000     0.888650000000     0          
O        O      0.777150000000     0.777150000000     0.846140000000     0          
O        O      0.876080000000     0.944840000000     0.944840000000     0          
O        O      0.765450000000     0.833320000000     0.833320000000     0          
O        O      0.000000000000     0.461240000000     0.371470000000     0          
O        O      0.110510000000     0.044230000000     0.332310000000     0          
O        O      0.130870000000     0.039130000000     0.277490000000     0          
O        O      0.111080000000     0.043730000000     0.222350000000     0          
O        O      0.092290000000     0.039530000000     0.166740000000     0          
O        O      0.093320000000     0.039480000000     0.611600000000     0          
O        O      0.610480000000     0.544600000000     0.055570000000     0          
O        O      0.110740000000     0.318050000000     0.185860000000     0          
O        O      0.278020000000     0.150520000000     0.202800000000     0          
O        O      0.185530000000     0.111120000000     0.238190000000     0          
O        O      0.071420000000     0.203080000000     0.278040000000     0          
O        O      0.055140000000     0.678750000000     0.833140000000     0          
O        O      0.055340000000     0.765740000000     0.832780000000     0          
O        O      0.277170000000     0.166700000000     0.432440000000     0          
O        O      0.333570000000     0.958040000000     0.445020000000     0          
O        O      0.432590000000     0.943840000000     0.278180000000     0          
O        O      0.166580000000     0.345580000000     0.278040000000     0          
O        O      0.611250000000     0.849090000000     0.241240000000     0          
O        O      0.571260000000     0.741930000000     0.111220000000     0          
O        O      0.039160000000     0.685700000000     0.389570000000     0          
O        O      0.778940000000     0.556110000000     0.845720000000     0          
O        O      0.853270000000     0.000000000000     0.318470000000     0          
O        O      0.295530000000     0.000000000000     0.429200000000     0          
O        O      0.575800000000     0.500000000000     0.071640000000     0          
O        O      0.645810000000     0.500000000000     0.040760000000     0          
O        O      0.075470000000     0.000000000000     0.348590000000     0          
O        O      0.147600000000     0.000000000000     0.236890000000     0          
O        O      0.075080000000     0.000000000000     0.206740000000     0          
O        O      0.075030000000     0.000000000000     0.126790000000     0          
O        O      0.000000000000     0.703590000000     0.349550000000     0          
O        O      0.554490000000     0.554490000000     0.070030000000     0          
O        O      0.054620000000     0.054620000000     0.346730000000     0          
O        O      0.054960000000     0.054960000000     0.209470000000     0          
O        O      0.834810000000     0.542010000000     0.834810000000     0          
O        O      0.165730000000     0.321020000000     0.165730000000     0          
O        O      0.223220000000     0.068550000000     0.223220000000     0          
O        O      0.111350000000     0.043550000000     0.111350000000     0          
O        O      0.153860000000     0.222850000000     0.222850000000     0          
O        O      0.055160000000     0.055160000000     0.123920000000     0          
O        O      0.166680000000     0.166680000000     0.234550000000     0          
O        O      0.628530000000     0.538760000000     0.000000000000     0          
O        O      0.110510000000     0.955770000000     0.667690000000     0          
O        O      0.130870000000     0.960870000000     0.722510000000     0          
O        O      0.111080000000     0.956270000000     0.777650000000     0          
O        O      0.092290000000     0.960470000000     0.833260000000     0          
O        O      0.093320000000     0.960520000000     0.388400000000     0          
O        O      0.610480000000     0.455400000000     0.944430000000     0          
O        O      0.110740000000     0.681950000000     0.814140000000     0          
O        O      0.278020000000     0.849480000000     0.797200000000     0          
O        O      0.185530000000     0.888880000000     0.761810000000     0          
O        O      0.071420000000     0.796920000000     0.721960000000     0          
O        O      0.055140000000     0.321250000000     0.166860000000     0          
O        O      0.055340000000     0.234260000000     0.167220000000     0          
O        O      0.277170000000     0.833300000000     0.567560000000     0          
O        O      0.333570000000     0.041960000000     0.554980000000     0          
O        O      0.432590000000     0.056160000000     0.721820000000     0          
O        O      0.166580000000     0.654420000000     0.721960000000     0          
O        O      0.611250000000     0.150910000000     0.758760000000     0          
O        O      0.571260000000     0.258070000000     0.888780000000     0          
O        O      0.039160000000     0.314300000000     0.610430000000     0          
O        O      0.778940000000     0.443890000000     0.154280000000     0          
O        O      0.853270000000     0.000000000000     0.681530000000     0          
O        O      0.295530000000     0.000000000000     0.570800000000     0          
O        O      0.575800000000     0.500000000000     0.928360000000     0          
O        O      0.645810000000     0.500000000000     0.959240000000     0          
O        O      0.075470000000     0.000000000000     0.651410000000     0          
O        O      0.147600000000     0.000000000000     0.763110000000     0          
O        O      0.075080000000     0.000000000000     0.793260000000     0          
O        O      0.075030000000     0.000000000000     0.873210000000     0          
O        O      0.000000000000     0.296410000000     0.650450000000     0          
O        O      0.554490000000     0.445510000000     0.929970000000     0          
O        O      0.054620000000     0.945380000000     0.653270000000     0          
O        O      0.054960000000     0.945040000000     0.790530000000     0          
O        O      0.834810000000     0.457990000000     0.165190000000     0          
O        O      0.165730000000     0.678980000000     0.834270000000     0          
O        O      0.223220000000     0.931450000000     0.776780000000     0          
O        O      0.111350000000     0.956450000000     0.888650000000     0          
O        O      0.153860000000     0.777150000000     0.777150000000     0          
O        O      0.055160000000     0.944840000000     0.876080000000     0          
O        O      0.166680000000     0.833320000000     0.765450000000     0          
O        O      0.628530000000     0.461240000000     0.000000000000     0          
O        O      0.044230000000     0.110510000000     0.667690000000     0          
O        O      0.039130000000     0.130870000000     0.722510000000     0          
O        O      0.043730000000     0.111080000000     0.777650000000     0          
O        O      0.039530000000     0.092290000000     0.833260000000     0          
O        O      0.039480000000     0.093320000000     0.388400000000     0          
O        O      0.544600000000     0.610480000000     0.944430000000     0          
O        O      0.318050000000     0.110740000000     0.814140000000     0          
O        O      0.150520000000     0.278020000000     0.797200000000     0          
O        O      0.111120000000     0.185530000000     0.761810000000     0          
O        O      0.203080000000     0.071420000000     0.721960000000     0          
O        O      0.678750000000     0.055140000000     0.166860000000     0          
O        O      0.765740000000     0.055340000000     0.167220000000     0          
O        O      0.166700000000     0.277170000000     0.567560000000     0          
O        O      0.958040000000     0.333570000000     0.554980000000     0          
O        O      0.943840000000     0.432590000000     0.721820000000     0          
O        O      0.345580000000     0.166580000000     0.721960000000     0          
O        O      0.849090000000     0.611250000000     0.758760000000     0          
O        O      0.741930000000     0.571260000000     0.888780000000     0          
O        O      0.685700000000     0.039160000000     0.610430000000     0          
O        O      0.556110000000     0.778940000000     0.154280000000     0          
O        O      0.000000000000     0.853270000000     0.681530000000     0          
O        O      0.000000000000     0.295530000000     0.570800000000     0          
O        O      0.500000000000     0.575800000000     0.928360000000     0          
O        O      0.500000000000     0.645810000000     0.959240000000     0          
O        O      0.000000000000     0.075470000000     0.651410000000     0          
O        O      0.000000000000     0.147600000000     0.763110000000     0          
O        O      0.000000000000     0.075080000000     0.793260000000     0          
O        O      0.000000000000     0.075030000000     0.873210000000     0          
O        O      0.703590000000     0.000000000000     0.650450000000     0          
O        O      0.554490000000     0.554490000000     0.929970000000     0          
O        O      0.054620000000     0.054620000000     0.653270000000     0          
O        O      0.054960000000     0.054960000000     0.790530000000     0          
O        O      0.542010000000     0.834810000000     0.165190000000     0          
O        O      0.321020000000     0.165730000000     0.834270000000     0          
O        O      0.068550000000     0.223220000000     0.776780000000     0          
O        O      0.043550000000     0.111350000000     0.888650000000     0          
O        O      0.222850000000     0.153860000000     0.777150000000     0          
O        O      0.055160000000     0.055160000000     0.876080000000     0          
O        O      0.166680000000     0.166680000000     0.765450000000     0          
O        O      0.538760000000     0.628530000000     0.000000000000     0          
O        O      0.889490000000     0.044230000000     0.667690000000     0          
O        O      0.869130000000     0.039130000000     0.722510000000     0          
O        O      0.888920000000     0.043730000000     0.777650000000     0          
O        O      0.907710000000     0.039530000000     0.833260000000     0          
O        O      0.906680000000     0.039480000000     0.388400000000     0          
O        O      0.389520000000     0.544600000000     0.944430000000     0          
O        O      0.889260000000     0.318050000000     0.814140000000     0          
O        O      0.721980000000     0.150520000000     0.797200000000     0          
O        O      0.814470000000     0.111120000000     0.761810000000     0          
O        O      0.928580000000     0.203080000000     0.721960000000     0          
O        O      0.944860000000     0.678750000000     0.166860000000     0          
O        O      0.944660000000     0.765740000000     0.167220000000     0          
O        O      0.722830000000     0.166700000000     0.567560000000     0          
O        O      0.666430000000     0.958040000000     0.554980000000     0          
O        O      0.567410000000     0.943840000000     0.721820000000     0          
O        O      0.833420000000     0.345580000000     0.721960000000     0          
O        O      0.388750000000     0.849090000000     0.758760000000     0          
O        O      0.428740000000     0.741930000000     0.888780000000     0          
O        O      0.960840000000     0.685700000000     0.610430000000     0          
O        O      0.221060000000     0.556110000000     0.154280000000     0          
O        O      0.146730000000     0.000000000000     0.681530000000     0          
O        O      0.704470000000     0.000000000000     0.570800000000     0          
O        O      0.424200000000     0.500000000000     0.928360000000     0          
O        O      0.354190000000     0.500000000000     0.959240000000     0          
O        O      0.924530000000     0.000000000000     0.651410000000     0          
O        O      0.852400000000     0.000000000000     0.763110000000     0          
O        O      0.924920000000     0.000000000000     0.793260000000     0          
O        O      0.924970000000     0.000000000000     0.873210000000     0          
O        O      0.000000000000     0.703590000000     0.650450000000     0          
O        O      0.445510000000     0.554490000000     0.929970000000     0          
O        O      0.945380000000     0.054620000000     0.653270000000     0          
O        O      0.945040000000     0.054960000000     0.790530000000     0          
O        O      0.165190000000     0.542010000000     0.165190000000     0          
O        O      0.834270000000     0.321020000000     0.834270000000     0          
O        O      0.776780000000     0.068550000000     0.776780000000     0          
O        O      0.888650000000     0.043550000000     0.888650000000     0          
O        O      0.846140000000     0.222850000000     0.777150000000     0          
O        O      0.944840000000     0.055160000000     0.876080000000     0          
O        O      0.833320000000     0.166680000000     0.765450000000     0          
O        O      0.371470000000     0.538760000000     0.000000000000     0          
O        O      0.955770000000     0.889490000000     0.667690000000     0          
O        O      0.960870000000     0.869130000000     0.722510000000     0          
O        O      0.956270000000     0.888920000000     0.777650000000     0          
O        O      0.960470000000     0.907710000000     0.833260000000     0          
O        O      0.960520000000     0.906680000000     0.388400000000     0          
O        O      0.455400000000     0.389520000000     0.944430000000     0          
O        O      0.681950000000     0.889260000000     0.814140000000     0          
O        O      0.849480000000     0.721980000000     0.797200000000     0          
O        O      0.888880000000     0.814470000000     0.761810000000     0          
O        O      0.796920000000     0.928580000000     0.721960000000     0          
O        O      0.321250000000     0.944860000000     0.166860000000     0          
O        O      0.234260000000     0.944660000000     0.167220000000     0          
O        O      0.833300000000     0.722830000000     0.567560000000     0          
O        O      0.041960000000     0.666430000000     0.554980000000     0          
O        O      0.056160000000     0.567410000000     0.721820000000     0          
O        O      0.654420000000     0.833420000000     0.721960000000     0          
O        O      0.150910000000     0.388750000000     0.758760000000     0          
O        O      0.258070000000     0.428740000000     0.888780000000     0          
O        O      0.314300000000     0.960840000000     0.610430000000     0          
O        O      0.443890000000     0.221060000000     0.154280000000     0          
O        O      0.000000000000     0.146730000000     0.681530000000     0          
O        O      0.000000000000     0.704470000000     0.570800000000     0          
O        O      0.500000000000     0.424200000000     0.928360000000     0          
O        O      0.500000000000     0.354190000000     0.959240000000     0          
O        O      0.000000000000     0.924530000000     0.651410000000     0          
O        O      0.000000000000     0.852400000000     0.763110000000     0          
O        O      0.000000000000     0.924920000000     0.793260000000     0          
O        O      0.000000000000     0.924970000000     0.873210000000     0          
O        O      0.296410000000     0.000000000000     0.650450000000     0          
O        O      0.445510000000     0.445510000000     0.929970000000     0          
O        O      0.945380000000     0.945380000000     0.653270000000     0          
O        O      0.945040000000     0.945040000000     0.790530000000     0          
O        O      0.457990000000     0.165190000000     0.165190000000     0          
O        O      0.678980000000     0.834270000000     0.834270000000     0          
O        O      0.931450000000     0.776780000000     0.776780000000     0          
O        O      0.956450000000     0.888650000000     0.888650000000     0          
O        O      0.777150000000     0.846140000000     0.777150000000     0          
O        O      0.944840000000     0.944840000000     0.876080000000     0          
O        O      0.833320000000     0.833320000000     0.765450000000     0          
O        O      0.461240000000     0.371470000000     0.000000000000     0          
O        O      0.889490000000     0.955770000000     0.332310000000     0          
O        O      0.869130000000     0.960870000000     0.277490000000     0          
O        O      0.888920000000     0.956270000000     0.222350000000     0          
O        O      0.907710000000     0.960470000000     0.166740000000     0          
O        O      0.906680000000     0.960520000000     0.611600000000     0          
O        O      0.389520000000     0.455400000000     0.055570000000     0          
O        O      0.889260000000     0.681950000000     0.185860000000     0          
O        O      0.721980000000     0.849480000000     0.202800000000     0          
O        O      0.814470000000     0.888880000000     0.238190000000     0          
O        O      0.928580000000     0.796920000000     0.278040000000     0          
O        O      0.944860000000     0.321250000000     0.833140000000     0          
O        O      0.944660000000     0.234260000000     0.832780000000     0          
O        O      0.722830000000     0.833300000000     0.432440000000     0          
O        O      0.666430000000     0.041960000000     0.445020000000     0          
O        O      0.567410000000     0.056160000000     0.278180000000     0          
O        O      0.833420000000     0.654420000000     0.278040000000     0          
O        O      0.388750000000     0.150910000000     0.241240000000     0          
O        O      0.428740000000     0.258070000000     0.111220000000     0          
O        O      0.960840000000     0.314300000000     0.389570000000     0          
O        O      0.221060000000     0.443890000000     0.845720000000     0          
O        O      0.146730000000     0.000000000000     0.318470000000     0          
O        O      0.704470000000     0.000000000000     0.429200000000     0          
O        O      0.424200000000     0.500000000000     0.071640000000     0          
O        O      0.354190000000     0.500000000000     0.040760000000     0          
O        O      0.924530000000     0.000000000000     0.348590000000     0          
O        O      0.852400000000     0.000000000000     0.236890000000     0          
O        O      0.924920000000     0.000000000000     0.206740000000     0          
O        O      0.924970000000     0.000000000000     0.126790000000     0          
O        O      0.000000000000     0.296410000000     0.349550000000     0          
O        O      0.445510000000     0.445510000000     0.070030000000     0          
O        O      0.945380000000     0.945380000000     0.346730000000     0          
O        O      0.945040000000     0.945040000000     0.209470000000     0          
O        O      0.165190000000     0.457990000000     0.834810000000     0          
O        O      0.834270000000     0.678980000000     0.165730000000     0          
O        O      0.776780000000     0.931450000000     0.223220000000     0          
O        O      0.888650000000     0.956450000000     0.111350000000     0          
O        O      0.846140000000     0.777150000000     0.222850000000     0          
O        O      0.944840000000     0.944840000000     0.123920000000     0          
O        O      0.833320000000     0.833320000000     0.234550000000     0          
O        O      0.371470000000     0.461240000000     0.000000000000     0          
O        O      0.044230000000     0.889490000000     0.332310000000     0          
O        O      0.039130000000     0.869130000000     0.277490000000     0          
O        O      0.043730000000     0.888920000000     0.222350000000     0          
O        O      0.039530000000     0.907710000000     0.166740000000     0          
O        O      0.039480000000     0.906680000000     0.611600000000     0          
O        O      0.544600000000     0.389520000000     0.055570000000     0          
O        O      0.318050000000     0.889260000000     0.185860000000     0          
O        O      0.150520000000     0.721980000000     0.202800000000     0          
O        O      0.111120000000     0.814470000000     0.238190000000     0          
O        O      0.203080000000     0.928580000000     0.278040000000     0          
O        O      0.678750000000     0.944860000000     0.833140000000     0          
O        O      0.765740000000     0.944660000000     0.832780000000     0          
O        O      0.166700000000     0.722830000000     0.432440000000     0          
O        O      0.958040000000     0.666430000000     0.445020000000     0          
O        O      0.943840000000     0.567410000000     0.278180000000     0          
O        O      0.345580000000     0.833420000000     0.278040000000     0          
O        O      0.849090000000     0.388750000000     0.241240000000     0          
O        O      0.741930000000     0.428740000000     0.111220000000     0          
O        O      0.685700000000     0.960840000000     0.389570000000     0          
O        O      0.556110000000     0.221060000000     0.845720000000     0          
O        O      0.000000000000     0.146730000000     0.318470000000     0          
O        O      0.000000000000     0.704470000000     0.429200000000     0          
O        O      0.500000000000     0.424200000000     0.071640000000     0          
O        O      0.500000000000     0.354190000000     0.040760000000     0          
O        O      0.000000000000     0.924530000000     0.348590000000     0          
O        O      0.000000000000     0.852400000000     0.236890000000     0          
O        O      0.000000000000     0.924920000000     0.206740000000     0          
O        O      0.000000000000     0.924970000000     0.126790000000     0          
O        O      0.703590000000     0.000000000000     0.349550000000     0          
O        O      0.554490000000     0.445510000000     0.070030000000     0          
O        O      0.054620000000     0.945380000000     0.346730000000     0          
O        O      0.054960000000     0.945040000000     0.209470000000     0          
O        O      0.542010000000     0.165190000000     0.834810000000     0          
O        O      0.321020000000     0.834270000000     0.165730000000     0          
O        O      0.068550000000     0.776780000000     0.223220000000     0          
O        O      0.043550000000     0.888650000000     0.111350000000     0          
O        O      0.222850000000     0.846140000000     0.222850000000     0          
O        O      0.055160000000     0.944840000000     0.123920000000     0          
O        O      0.166680000000     0.833320000000     0.234550000000     0          
O        O      0.538760000000     0.371470000000     0.000000000000     0          
O        O      0.955770000000     0.110510000000     0.332310000000     0          
O        O      0.960870000000     0.130870000000     0.277490000000     0          
O        O      0.956270000000     0.111080000000     0.222350000000     0          
O        O      0.960470000000     0.092290000000     0.166740000000     0          
O        O      0.960520000000     0.093320000000     0.611600000000     0          
O        O      0.455400000000     0.610480000000     0.055570000000     0          
O        O      0.681950000000     0.110740000000     0.185860000000     0          
O        O      0.849480000000     0.278020000000     0.202800000000     0          
O        O      0.888880000000     0.185530000000     0.238190000000     0          
O        O      0.796920000000     0.071420000000     0.278040000000     0          
O        O      0.321250000000     0.055140000000     0.833140000000     0          
O        O      0.234260000000     0.055340000000     0.832780000000     0          
O        O      0.833300000000     0.277170000000     0.432440000000     0          
O        O      0.041960000000     0.333570000000     0.445020000000     0          
O        O      0.056160000000     0.432590000000     0.278180000000     0          
O        O      0.654420000000     0.166580000000     0.278040000000     0          
O        O      0.150910000000     0.611250000000     0.241240000000     0          
O        O      0.258070000000     0.571260000000     0.111220000000     0          
O        O      0.314300000000     0.039160000000     0.389570000000     0          
O        O      0.443890000000     0.778940000000     0.845720000000     0          
O        O      0.000000000000     0.853270000000     0.318470000000     0          
O        O      0.000000000000     0.295530000000     0.429200000000     0          
O        O      0.500000000000     0.575800000000     0.071640000000     0          
O        O      0.500000000000     0.645810000000     0.040760000000     0          
O        O      0.000000000000     0.075470000000     0.348590000000     0          
O        O      0.000000000000     0.147600000000     0.236890000000     0          
O        O      0.000000000000     0.075080000000     0.206740000000     0          
O        O      0.000000000000     0.075030000000     0.126790000000     0          
O        O      0.296410000000     0.000000000000     0.349550000000     0          
O        O      0.445510000000     0.554490000000     0.070030000000     0          
O        O      0.945380000000     0.054620000000     0.346730000000     0          
O        O      0.945040000000     0.054960000000     0.209470000000     0          
O        O      0.457990000000     0.834810000000     0.834810000000     0          
O        O      0.678980000000     0.165730000000     0.165730000000     0          
O        O      0.931450000000     0.223220000000     0.223220000000     0          
O        O      0.956450000000     0.111350000000     0.111350000000     0          
O        O      0.777150000000     0.153860000000     0.222850000000     0          
O        O      0.944840000000     0.055160000000     0.123920000000     0          
O        O      0.833320000000     0.166680000000     0.234550000000     0          
O        O      0.461240000000     0.628530000000     0.000000000000     0          
O        O      0.667690000000     0.889490000000     0.955770000000     0          
O        O      0.722510000000     0.869130000000     0.960870000000     0          
O        O      0.777650000000     0.888920000000     0.956270000000     0          
O        O      0.833260000000     0.907710000000     0.960470000000     0          
O        O      0.388400000000     0.906680000000     0.960520000000     0          
O        O      0.944430000000     0.389520000000     0.455400000000     0          
O        O      0.814140000000     0.889260000000     0.681950000000     0          
O        O      0.797200000000     0.721980000000     0.849480000000     0          
O        O      0.761810000000     0.814470000000     0.888880000000     0          
O        O      0.721960000000     0.928580000000     0.796920000000     0          
O        O      0.166860000000     0.944860000000     0.321250000000     0          
O        O      0.167220000000     0.944660000000     0.234260000000     0          
O        O      0.567560000000     0.722830000000     0.833300000000     0          
O        O      0.554980000000     0.666430000000     0.041960000000     0          
O        O      0.721820000000     0.567410000000     0.056160000000     0          
O        O      0.721960000000     0.833420000000     0.654420000000     0          
O        O      0.758760000000     0.388750000000     0.150910000000     0          
O        O      0.888780000000     0.428740000000     0.258070000000     0          
O        O      0.610430000000     0.960840000000     0.314300000000     0          
O        O      0.154280000000     0.221060000000     0.443890000000     0          
O        O      0.110510000000     0.667690000000     0.955770000000     0          
O        O      0.130870000000     0.722510000000     0.960870000000     0          
O        O      0.111080000000     0.777650000000     0.956270000000     0          
O        O      0.092290000000     0.833260000000     0.960470000000     0          
O        O      0.093320000000     0.388400000000     0.960520000000     0          
O        O      0.610480000000     0.944430000000     0.455400000000     0          
O        O      0.110740000000     0.814140000000     0.681950000000     0          
O        O      0.278020000000     0.797200000000     0.849480000000     0          
O        O      0.185530000000     0.761810000000     0.888880000000     0          
O        O      0.071420000000     0.721960000000     0.796920000000     0          
O        O      0.055140000000     0.166860000000     0.321250000000     0          
O        O      0.055340000000     0.167220000000     0.234260000000     0          
O        O      0.277170000000     0.567560000000     0.833300000000     0          
O        O      0.333570000000     0.554980000000     0.041960000000     0          
O        O      0.432590000000     0.721820000000     0.056160000000     0          
O        O      0.166580000000     0.721960000000     0.654420000000     0          
O        O      0.611250000000     0.758760000000     0.150910000000     0          
O        O      0.571260000000     0.888780000000     0.258070000000     0          
O        O      0.039160000000     0.610430000000     0.314300000000     0          
O        O      0.778940000000     0.154280000000     0.443890000000     0          
O        O      0.332310000000     0.110510000000     0.955770000000     0          
O        O      0.277490000000     0.130870000000     0.960870000000     0          
O        O      0.222350000000     0.111080000000     0.956270000000     0          
O        O      0.166740000000     0.092290000000     0.960470000000     0          
O        O      0.611600000000     0.093320000000     0.960520000000     0          
O        O      0.055570000000     0.610480000000     0.455400000000     0          
O        O      0.185860000000     0.110740000000     0.681950000000     0          
O        O      0.202800000000     0.278020000000     0.849480000000     0          
O        O      0.238190000000     0.185530000000     0.888880000000     0          
O        O      0.278040000000     0.071420000000     0.796920000000     0          
O        O      0.833140000000     0.055140000000     0.321250000000     0          
O        O      0.832780000000     0.055340000000     0.234260000000     0          
O        O      0.432440000000     0.277170000000     0.833300000000     0          
O        O      0.445020000000     0.333570000000     0.041960000000     0          
O        O      0.278180000000     0.432590000000     0.056160000000     0          
O        O      0.278040000000     0.166580000000     0.654420000000     0          
O        O      0.241240000000     0.611250000000     0.150910000000     0          
O        O      0.111220000000     0.571260000000     0.258070000000     0          
O        O      0.389570000000     0.039160000000     0.314300000000     0          
O        O      0.845720000000     0.778940000000     0.443890000000     0          
O        O      0.889490000000     0.332310000000     0.955770000000     0          
O        O      0.869130000000     0.277490000000     0.960870000000     0          
O        O      0.888920000000     0.222350000000     0.956270000000     0          
O        O      0.907710000000     0.166740000000     0.960470000000     0          
O        O      0.906680000000     0.611600000000     0.960520000000     0          
O        O      0.389520000000     0.055570000000     0.455400000000     0          
O        O      0.889260000000     0.185860000000     0.681950000000     0          
O        O      0.721980000000     0.202800000000     0.849480000000     0          
O        O      0.814470000000     0.238190000000     0.888880000000     0          
O        O      0.928580000000     0.278040000000     0.796920000000     0          
O        O      0.944860000000     0.833140000000     0.321250000000     0          
O        O      0.944660000000     0.832780000000     0.234260000000     0          
O        O      0.722830000000     0.432440000000     0.833300000000     0          
O        O      0.666430000000     0.445020000000     0.041960000000     0          
O        O      0.567410000000     0.278180000000     0.056160000000     0          
O        O      0.833420000000     0.278040000000     0.654420000000     0          
O        O      0.388750000000     0.241240000000     0.150910000000     0          
O        O      0.428740000000     0.111220000000     0.258070000000     0          
O        O      0.960840000000     0.389570000000     0.314300000000     0          
O        O      0.221060000000     0.845720000000     0.443890000000     0          
O        O      0.667690000000     0.110510000000     0.044230000000     0          
O        O      0.722510000000     0.130870000000     0.039130000000     0          
O        O      0.777650000000     0.111080000000     0.043730000000     0          
O        O      0.833260000000     0.092290000000     0.039530000000     0          
O        O      0.388400000000     0.093320000000     0.039480000000     0          
O        O      0.944430000000     0.610480000000     0.544600000000     0          
O        O      0.814140000000     0.110740000000     0.318050000000     0          
O        O      0.797200000000     0.278020000000     0.150520000000     0          
O        O      0.761810000000     0.185530000000     0.111120000000     0          
O        O      0.721960000000     0.071420000000     0.203080000000     0          
O        O      0.166860000000     0.055140000000     0.678750000000     0          
O        O      0.167220000000     0.055340000000     0.765740000000     0          
O        O      0.567560000000     0.277170000000     0.166700000000     0          
O        O      0.554980000000     0.333570000000     0.958040000000     0          
O        O      0.721820000000     0.432590000000     0.943840000000     0          
O        O      0.721960000000     0.166580000000     0.345580000000     0          
O        O      0.758760000000     0.611250000000     0.849090000000     0          
O        O      0.888780000000     0.571260000000     0.741930000000     0          
O        O      0.610430000000     0.039160000000     0.685700000000     0          
O        O      0.154280000000     0.778940000000     0.556110000000     0          
O        O      0.889490000000     0.667690000000     0.044230000000     0          
O        O      0.869130000000     0.722510000000     0.039130000000     0          
O        O      0.888920000000     0.777650000000     0.043730000000     0          
O        O      0.907710000000     0.833260000000     0.039530000000     0          
O        O      0.906680000000     0.388400000000     0.039480000000     0          
O        O      0.389520000000     0.944430000000     0.544600000000     0          
O        O      0.889260000000     0.814140000000     0.318050000000     0          
O        O      0.721980000000     0.797200000000     0.150520000000     0          
O        O      0.814470000000     0.761810000000     0.111120000000     0          
O        O      0.928580000000     0.721960000000     0.203080000000     0          
O        O      0.944860000000     0.166860000000     0.678750000000     0          
O        O      0.944660000000     0.167220000000     0.765740000000     0          
O        O      0.722830000000     0.567560000000     0.166700000000     0          
O        O      0.666430000000     0.554980000000     0.958040000000     0          
O        O      0.567410000000     0.721820000000     0.943840000000     0          
O        O      0.833420000000     0.721960000000     0.345580000000     0          
O        O      0.388750000000     0.758760000000     0.849090000000     0          
O        O      0.428740000000     0.888780000000     0.741930000000     0          
O        O      0.960840000000     0.610430000000     0.685700000000     0          
O        O      0.221060000000     0.154280000000     0.556110000000     0          
O        O      0.332310000000     0.889490000000     0.044230000000     0          
O        O      0.277490000000     0.869130000000     0.039130000000     0          
O        O      0.222350000000     0.888920000000     0.043730000000     0          
O        O      0.166740000000     0.907710000000     0.039530000000     0          
O        O      0.611600000000     0.906680000000     0.039480000000     0          
O        O      0.055570000000     0.389520000000     0.544600000000     0          
O        O      0.185860000000     0.889260000000     0.318050000000     0          
O        O      0.202800000000     0.721980000000     0.150520000000     0          
O        O      0.238190000000     0.814470000000     0.111120000000     0          
O        O      0.278040000000     0.928580000000     0.203080000000     0          
O        O      0.833140000000     0.944860000000     0.678750000000     0          
O        O      0.832780000000     0.944660000000     0.765740000000     0          
O        O      0.432440000000     0.722830000000     0.166700000000     0          
O        O      0.445020000000     0.666430000000     0.958040000000     0          
O        O      0.278180000000     0.567410000000     0.943840000000     0          
O        O      0.278040000000     0.833420000000     0.345580000000     0          
O        O      0.241240000000     0.388750000000     0.849090000000     0          
O        O      0.111220000000     0.428740000000     0.741930000000     0          
O        O      0.389570000000     0.960840000000     0.685700000000     0          
O        O      0.845720000000     0.221060000000     0.556110000000     0          
O        O      0.110510000000     0.332310000000     0.044230000000     0          
O        O      0.130870000000     0.277490000000     0.039130000000     0          
O        O      0.111080000000     0.222350000000     0.043730000000     0          
O        O      0.092290000000     0.166740000000     0.039530000000     0          
O        O      0.093320000000     0.611600000000     0.039480000000     0          
O        O      0.610480000000     0.055570000000     0.544600000000     0          
O        O      0.110740000000     0.185860000000     0.318050000000     0          
O        O      0.278020000000     0.202800000000     0.150520000000     0          
O        O      0.185530000000     0.238190000000     0.111120000000     0          
O        O      0.071420000000     0.278040000000     0.203080000000     0          
O        O      0.055140000000     0.833140000000     0.678750000000     0          
O        O      0.055340000000     0.832780000000     0.765740000000     0          
O        O      0.277170000000     0.432440000000     0.166700000000     0          
O        O      0.333570000000     0.445020000000     0.958040000000     0          
O        O      0.432590000000     0.278180000000     0.943840000000     0          
O        O      0.166580000000     0.278040000000     0.345580000000     0          
O        O      0.611250000000     0.241240000000     0.849090000000     0          
O        O      0.571260000000     0.111220000000     0.741930000000     0          
O        O      0.039160000000     0.389570000000     0.685700000000     0          
O        O      0.778940000000     0.845720000000     0.556110000000     0          
O        O      0.955770000000     0.667690000000     0.889490000000     0          
O        O      0.960870000000     0.722510000000     0.869130000000     0          
O        O      0.956270000000     0.777650000000     0.888920000000     0          
O        O      0.960470000000     0.833260000000     0.907710000000     0          
O        O      0.960520000000     0.388400000000     0.906680000000     0          
O        O      0.455400000000     0.944430000000     0.389520000000     0          
O        O      0.681950000000     0.814140000000     0.889260000000     0          
O        O      0.849480000000     0.797200000000     0.721980000000     0          
O        O      0.888880000000     0.761810000000     0.814470000000     0          
O        O      0.796920000000     0.721960000000     0.928580000000     0          
O        O      0.321250000000     0.166860000000     0.944860000000     0          
O        O      0.234260000000     0.167220000000     0.944660000000     0          
O        O      0.833300000000     0.567560000000     0.722830000000     0          
O        O      0.041960000000     0.554980000000     0.666430000000     0          
O        O      0.056160000000     0.721820000000     0.567410000000     0          
O        O      0.654420000000     0.721960000000     0.833420000000     0          
O        O      0.150910000000     0.758760000000     0.388750000000     0          
O        O      0.258070000000     0.888780000000     0.428740000000     0          
O        O      0.314300000000     0.610430000000     0.960840000000     0          
O        O      0.443890000000     0.154280000000     0.221060000000     0          
O        O      0.332310000000     0.955770000000     0.889490000000     0          
O        O      0.277490000000     0.960870000000     0.869130000000     0          
O        O      0.222350000000     0.956270000000     0.888920000000     0          
O        O      0.166740000000     0.960470000000     0.907710000000     0          
O        O      0.611600000000     0.960520000000     0.906680000000     0          
O        O      0.055570000000     0.455400000000     0.389520000000     0          
O        O      0.185860000000     0.681950000000     0.889260000000     0          
O        O      0.202800000000     0.849480000000     0.721980000000     0          
O        O      0.238190000000     0.888880000000     0.814470000000     0          
O        O      0.278040000000     0.796920000000     0.928580000000     0          
O        O      0.833140000000     0.321250000000     0.944860000000     0          
O        O      0.832780000000     0.234260000000     0.944660000000     0          
O        O      0.432440000000     0.833300000000     0.722830000000     0          
O        O      0.445020000000     0.041960000000     0.666430000000     0          
O        O      0.278180000000     0.056160000000     0.567410000000     0          
O        O      0.278040000000     0.654420000000     0.833420000000     0          
O        O      0.241240000000     0.150910000000     0.388750000000     0          
O        O      0.111220000000     0.258070000000     0.428740000000     0          
O        O      0.389570000000     0.314300000000     0.960840000000     0          
O        O      0.845720000000     0.443890000000     0.221060000000     0          
O        O      0.044230000000     0.332310000000     0.889490000000     0          
O        O      0.039130000000     0.277490000000     0.869130000000     0          
O        O      0.043730000000     0.222350000000     0.888920000000     0          
O        O      0.039530000000     0.166740000000     0.907710000000     0          
O        O      0.039480000000     0.611600000000     0.906680000000     0          
O        O      0.544600000000     0.055570000000     0.389520000000     0          
O        O      0.318050000000     0.185860000000     0.889260000000     0          
O        O      0.150520000000     0.202800000000     0.721980000000     0          
O        O      0.111120000000     0.238190000000     0.814470000000     0          
O        O      0.203080000000     0.278040000000     0.928580000000     0          
O        O      0.678750000000     0.833140000000     0.944860000000     0          
O        O      0.765740000000     0.832780000000     0.944660000000     0          
O        O      0.166700000000     0.432440000000     0.722830000000     0          
O        O      0.958040000000     0.445020000000     0.666430000000     0          
O        O      0.943840000000     0.278180000000     0.567410000000     0          
O        O      0.345580000000     0.278040000000     0.833420000000     0          
O        O      0.849090000000     0.241240000000     0.388750000000     0          
O        O      0.741930000000     0.111220000000     0.428740000000     0          
O        O      0.685700000000     0.389570000000     0.960840000000     0          
O        O      0.556110000000     0.845720000000     0.221060000000     0          
O        O      0.667690000000     0.044230000000     0.889490000000     0          
O        O      0.722510000000     0.039130000000     0.869130000000     0          
O        O      0.777650000000     0.043730000000     0.888920000000     0          
O        O      0.833260000000     0.039530000000     0.907710000000     0          
O        O      0.388400000000     0.039480000000     0.906680000000     0          
O        O      0.944430000000     0.544600000000     0.389520000000     0          
O        O      0.814140000000     0.318050000000     0.889260000000     0          
O        O      0.797200000000     0.150520000000     0.721980000000     0          
O        O      0.761810000000     0.111120000000     0.814470000000     0          
O        O      0.721960000000     0.203080000000     0.928580000000     0          
O        O      0.166860000000     0.678750000000     0.944860000000     0          
O        O      0.167220000000     0.765740000000     0.944660000000     0          
O        O      0.567560000000     0.166700000000     0.722830000000     0          
O        O      0.554980000000     0.958040000000     0.666430000000     0          
O        O      0.721820000000     0.943840000000     0.567410000000     0          
O        O      0.721960000000     0.345580000000     0.833420000000     0          
O        O      0.758760000000     0.849090000000     0.388750000000     0          
O        O      0.888780000000     0.741930000000     0.428740000000     0          
O        O      0.610430000000     0.685700000000     0.960840000000     0          
O        O      0.154280000000     0.556110000000     0.221060000000     0          
O        O      0.955770000000     0.332310000000     0.110510000000     0          
O        O      0.960870000000     0.277490000000     0.130870000000     0          
O        O      0.956270000000     0.222350000000     0.111080000000     0          
O        O      0.960470000000     0.166740000000     0.092290000000     0          
O        O      0.960520000000     0.611600000000     0.093320000000     0          
O        O      0.455400000000     0.055570000000     0.610480000000     0          
O        O      0.681950000000     0.185860000000     0.110740000000     0          
O        O      0.849480000000     0.202800000000     0.278020000000     0          
O        O      0.888880000000     0.238190000000     0.185530000000     0          
O        O      0.796920000000     0.278040000000     0.071420000000     0          
O        O      0.321250000000     0.833140000000     0.055140000000     0          
O        O      0.234260000000     0.832780000000     0.055340000000     0          
O        O      0.833300000000     0.432440000000     0.277170000000     0          
O        O      0.041960000000     0.445020000000     0.333570000000     0          
O        O      0.056160000000     0.278180000000     0.432590000000     0          
O        O      0.654420000000     0.278040000000     0.166580000000     0          
O        O      0.150910000000     0.241240000000     0.611250000000     0          
O        O      0.258070000000     0.111220000000     0.571260000000     0          
O        O      0.314300000000     0.389570000000     0.039160000000     0          
O        O      0.443890000000     0.845720000000     0.778940000000     0          
O        O      0.667690000000     0.955770000000     0.110510000000     0          
O        O      0.722510000000     0.960870000000     0.130870000000     0          
O        O      0.777650000000     0.956270000000     0.111080000000     0          
O        O      0.833260000000     0.960470000000     0.092290000000     0          
O        O      0.388400000000     0.960520000000     0.093320000000     0          
O        O      0.944430000000     0.455400000000     0.610480000000     0          
O        O      0.814140000000     0.681950000000     0.110740000000     0          
O        O      0.797200000000     0.849480000000     0.278020000000     0          
O        O      0.761810000000     0.888880000000     0.185530000000     0          
O        O      0.721960000000     0.796920000000     0.071420000000     0          
O        O      0.166860000000     0.321250000000     0.055140000000     0          
O        O      0.167220000000     0.234260000000     0.055340000000     0          
O        O      0.567560000000     0.833300000000     0.277170000000     0          
O        O      0.554980000000     0.041960000000     0.333570000000     0          
O        O      0.721820000000     0.056160000000     0.432590000000     0          
O        O      0.721960000000     0.654420000000     0.166580000000     0          
O        O      0.758760000000     0.150910000000     0.611250000000     0          
O        O      0.888780000000     0.258070000000     0.571260000000     0          
O        O      0.610430000000     0.314300000000     0.039160000000     0          
O        O      0.154280000000     0.443890000000     0.778940000000     0          
O        O      0.044230000000     0.667690000000     0.110510000000     0          
O        O      0.039130000000     0.722510000000     0.130870000000     0          
O        O      0.043730000000     0.777650000000     0.111080000000     0          
O        O      0.039530000000     0.833260000000     0.092290000000     0          
O        O      0.039480000000     0.388400000000     0.093320000000     0          
O        O      0.544600000000     0.944430000000     0.610480000000     0          
O        O      0.318050000000     0.814140000000     0.110740000000     0          
O        O      0.150520000000     0.797200000000     0.278020000000     0          
O        O      0.111120000000     0.761810000000     0.185530000000     0          
O        O      0.203080000000     0.721960000000     0.071420000000     0          
O        O      0.678750000000     0.166860000000     0.055140000000     0          
O        O      0.765740000000     0.167220000000     0.055340000000     0          
O        O      0.166700000000     0.567560000000     0.277170000000     0          
O        O      0.958040000000     0.554980000000     0.333570000000     0          
O        O      0.943840000000     0.721820000000     0.432590000000     0          
O        O      0.345580000000     0.721960000000     0.166580000000     0          
O        O      0.849090000000     0.758760000000     0.611250000000     0          
O        O      0.741930000000     0.888780000000     0.571260000000     0          
O        O      0.685700000000     0.610430000000     0.039160000000     0          
O        O      0.556110000000     0.154280000000     0.778940000000     0          
O        O      0.332310000000     0.044230000000     0.110510000000     0          
O        O      0.277490000000     0.039130000000     0.130870000000     0          
O        O      0.222350000000     0.043730000000     0.111080000000     0          
O        O      0.166740000000     0.039530000000     0.092290000000     0          
O        O      0.611600000000     0.039480000000     0.093320000000     0          
O        O      0.055570000000     0.544600000000     0.610480000000     0          
O        O      0.185860000000     0.318050000000     0.110740000000     0          
O        O      0.202800000000     0.150520000000     0.278020000000     0          
O        O      0.238190000000     0.111120000000     0.185530000000     0          
O        O      0.278040000000     0.203080000000     0.071420000000     0          
O        O      0.833140000000     0.678750000000     0.055140000000     0          
O        O      0.832780000000     0.765740000000     0.055340000000     0          
O        O      0.432440000000     0.166700000000     0.277170000000     0          
O        O      0.445020000000     0.958040000000     0.333570000000     0          
O        O      0.278180000000     0.943840000000     0.432590000000     0          
O        O      0.278040000000     0.345580000000     0.166580000000     0          
O        O      0.241240000000     0.849090000000     0.611250000000     0          
O        O      0.111220000000     0.741930000000     0.571260000000     0          
O        O      0.389570000000     0.685700000000     0.039160000000     0          
O        O      0.845720000000     0.556110000000     0.778940000000     0          
O        O      0.889490000000     0.955770000000     0.667690000000     0          
O        O      0.869130000000     0.960870000000     0.722510000000     0          
O        O      0.888920000000     0.956270000000     0.777650000000     0          
O        O      0.907710000000     0.960470000000     0.833260000000     0          
O        O      0.906680000000     0.960520000000     0.388400000000     0          
O        O      0.389520000000     0.455400000000     0.944430000000     0          
O        O      0.889260000000     0.681950000000     0.814140000000     0          
O        O      0.721980000000     0.849480000000     0.797200000000     0          
O        O      0.814470000000     0.888880000000     0.761810000000     0          
O        O      0.928580000000     0.796920000000     0.721960000000     0          
O        O      0.944860000000     0.321250000000     0.166860000000     0          
O        O      0.944660000000     0.234260000000     0.167220000000     0          
O        O      0.722830000000     0.833300000000     0.567560000000     0          
O        O      0.666430000000     0.041960000000     0.554980000000     0          
O        O      0.567410000000     0.056160000000     0.721820000000     0          
O        O      0.833420000000     0.654420000000     0.721960000000     0          
O        O      0.388750000000     0.150910000000     0.758760000000     0          
O        O      0.428740000000     0.258070000000     0.888780000000     0          
O        O      0.960840000000     0.314300000000     0.610430000000     0          
O        O      0.221060000000     0.443890000000     0.154280000000     0          
O        O      0.889490000000     0.044230000000     0.332310000000     0          
O        O      0.869130000000     0.039130000000     0.277490000000     0          
O        O      0.888920000000     0.043730000000     0.222350000000     0          
O        O      0.907710000000     0.039530000000     0.166740000000     0          
O        O      0.906680000000     0.039480000000     0.611600000000     0          
O        O      0.389520000000     0.544600000000     0.055570000000     0          
O        O      0.889260000000     0.318050000000     0.185860000000     0          
O        O      0.721980000000     0.150520000000     0.202800000000     0          
O        O      0.814470000000     0.111120000000     0.238190000000     0          
O        O      0.928580000000     0.203080000000     0.278040000000     0          
O        O      0.944860000000     0.678750000000     0.833140000000     0          
O        O      0.944660000000     0.765740000000     0.832780000000     0          
O        O      0.722830000000     0.166700000000     0.432440000000     0          
O        O      0.666430000000     0.958040000000     0.445020000000     0          
O        O      0.567410000000     0.943840000000     0.278180000000     0          
O        O      0.833420000000     0.345580000000     0.278040000000     0          
O        O      0.388750000000     0.849090000000     0.241240000000     0          
O        O      0.428740000000     0.741930000000     0.111220000000     0          
O        O      0.960840000000     0.685700000000     0.389570000000     0          
O        O      0.221060000000     0.556110000000     0.845720000000     0          
O        O      0.955770000000     0.889490000000     0.332310000000     0          
O        O      0.960870000000     0.869130000000     0.277490000000     0          
O        O      0.956270000000     0.888920000000     0.222350000000     0          
O        O      0.960470000000     0.907710000000     0.166740000000     0          
O        O      0.960520000000     0.906680000000     0.611600000000     0          
O        O      0.455400000000     0.389520000000     0.055570000000     0          
O        O      0.681950000000     0.889260000000     0.185860000000     0          
O        O      0.849480000000     0.721980000000     0.202800000000     0          
O        O      0.888880000000     0.814470000000     0.238190000000     0          
O        O      0.796920000000     0.928580000000     0.278040000000     0          
O        O      0.321250000000     0.944860000000     0.833140000000     0          
O        O      0.234260000000     0.944660000000     0.832780000000     0          
O        O      0.833300000000     0.722830000000     0.432440000000     0          
O        O      0.041960000000     0.666430000000     0.445020000000     0          
O        O      0.056160000000     0.567410000000     0.278180000000     0          
O        O      0.654420000000     0.833420000000     0.278040000000     0          
O        O      0.150910000000     0.388750000000     0.241240000000     0          
O        O      0.258070000000     0.428740000000     0.111220000000     0          
O        O      0.314300000000     0.960840000000     0.389570000000     0          
O        O      0.443890000000     0.221060000000     0.845720000000     0          
O        O      0.110510000000     0.955770000000     0.332310000000     0          
O        O      0.130870000000     0.960870000000     0.277490000000     0          
O        O      0.111080000000     0.956270000000     0.222350000000     0          
O        O      0.092290000000     0.960470000000     0.166740000000     0          
O        O      0.093320000000     0.960520000000     0.611600000000     0          
O        O      0.610480000000     0.455400000000     0.055570000000     0          
O        O      0.110740000000     0.681950000000     0.185860000000     0          
O        O      0.278020000000     0.849480000000     0.202800000000     0          
O        O      0.185530000000     0.888880000000     0.238190000000     0          
O        O      0.071420000000     0.796920000000     0.278040000000     0          
O        O      0.055140000000     0.321250000000     0.833140000000     0          
O        O      0.055340000000     0.234260000000     0.832780000000     0          
O        O      0.277170000000     0.833300000000     0.432440000000     0          
O        O      0.333570000000     0.041960000000     0.445020000000     0          
O        O      0.432590000000     0.056160000000     0.278180000000     0          
O        O      0.166580000000     0.654420000000     0.278040000000     0          
O        O      0.611250000000     0.150910000000     0.241240000000     0          
O        O      0.571260000000     0.258070000000     0.111220000000     0          
O        O      0.039160000000     0.314300000000     0.389570000000     0          
O        O      0.778940000000     0.443890000000     0.845720000000     0          
O        O      0.044230000000     0.110510000000     0.332310000000     0          
O        O      0.039130000000     0.130870000000     0.277490000000     0          
O        O      0.043730000000     0.111080000000     0.222350000000     0          
O        O      0.039530000000     0.092290000000     0.166740000000     0          
O        O      0.039480000000     0.093320000000     0.611600000000     0          
O        O      0.544600000000     0.610480000000     0.055570000000     0          
O        O      0.318050000000     0.110740000000     0.185860000000     0          
O        O      0.150520000000     0.278020000000     0.202800000000     0          
O        O      0.111120000000     0.185530000000     0.238190000000     0          
O        O      0.203080000000     0.071420000000     0.278040000000     0          
O        O      0.678750000000     0.055140000000     0.833140000000     0          
O        O      0.765740000000     0.055340000000     0.832780000000     0          
O        O      0.166700000000     0.277170000000     0.432440000000     0          
O        O      0.958040000000     0.333570000000     0.445020000000     0          
O        O      0.943840000000     0.432590000000     0.278180000000     0          
O        O      0.345580000000     0.166580000000     0.278040000000     0          
O        O      0.849090000000     0.611250000000     0.241240000000     0          
O        O      0.741930000000     0.571260000000     0.111220000000     0          
O        O      0.685700000000     0.039160000000     0.389570000000     0          
O        O      0.556110000000     0.778940000000     0.845720000000     0          
O        O      0.110510000000     0.044230000000     0.667690000000     0          
O        O      0.130870000000     0.039130000000     0.722510000000     0          
O        O      0.111080000000     0.043730000000     0.777650000000     0          
O        O      0.092290000000     0.039530000000     0.833260000000     0          
O        O      0.093320000000     0.039480000000     0.388400000000     0          
O        O      0.610480000000     0.544600000000     0.944430000000     0          
O        O      0.110740000000     0.318050000000     0.814140000000     0          
O        O      0.278020000000     0.150520000000     0.797200000000     0          
O        O      0.185530000000     0.111120000000     0.761810000000     0          
O        O      0.071420000000     0.203080000000     0.721960000000     0          
O        O      0.055140000000     0.678750000000     0.166860000000     0          
O        O      0.055340000000     0.765740000000     0.167220000000     0          
O        O      0.277170000000     0.166700000000     0.567560000000     0          
O        O      0.333570000000     0.958040000000     0.554980000000     0          
O        O      0.432590000000     0.943840000000     0.721820000000     0          
O        O      0.166580000000     0.345580000000     0.721960000000     0          
O        O      0.611250000000     0.849090000000     0.758760000000     0          
O        O      0.571260000000     0.741930000000     0.888780000000     0          
O        O      0.039160000000     0.685700000000     0.610430000000     0          
O        O      0.778940000000     0.556110000000     0.154280000000     0          
O        O      0.955770000000     0.110510000000     0.667690000000     0          
O        O      0.960870000000     0.130870000000     0.722510000000     0          
O        O      0.956270000000     0.111080000000     0.777650000000     0          
O        O      0.960470000000     0.092290000000     0.833260000000     0          
O        O      0.960520000000     0.093320000000     0.388400000000     0          
O        O      0.455400000000     0.610480000000     0.944430000000     0          
O        O      0.681950000000     0.110740000000     0.814140000000     0          
O        O      0.849480000000     0.278020000000     0.797200000000     0          
O        O      0.888880000000     0.185530000000     0.761810000000     0          
O        O      0.796920000000     0.071420000000     0.721960000000     0          
O        O      0.321250000000     0.055140000000     0.166860000000     0          
O        O      0.234260000000     0.055340000000     0.167220000000     0          
O        O      0.833300000000     0.277170000000     0.567560000000     0          
O        O      0.041960000000     0.333570000000     0.554980000000     0          
O        O      0.056160000000     0.432590000000     0.721820000000     0          
O        O      0.654420000000     0.166580000000     0.721960000000     0          
O        O      0.150910000000     0.611250000000     0.758760000000     0          
O        O      0.258070000000     0.571260000000     0.888780000000     0          
O        O      0.314300000000     0.039160000000     0.610430000000     0          
O        O      0.443890000000     0.778940000000     0.154280000000     0          
O        O      0.044230000000     0.889490000000     0.667690000000     0          
O        O      0.039130000000     0.869130000000     0.722510000000     0          
O        O      0.043730000000     0.888920000000     0.777650000000     0          
O        O      0.039530000000     0.907710000000     0.833260000000     0          
O        O      0.039480000000     0.906680000000     0.388400000000     0          
O        O      0.544600000000     0.389520000000     0.944430000000     0          
O        O      0.318050000000     0.889260000000     0.814140000000     0          
O        O      0.150520000000     0.721980000000     0.797200000000     0          
O        O      0.111120000000     0.814470000000     0.761810000000     0          
O        O      0.203080000000     0.928580000000     0.721960000000     0          
O        O      0.678750000000     0.944860000000     0.166860000000     0          
O        O      0.765740000000     0.944660000000     0.167220000000     0          
O        O      0.166700000000     0.722830000000     0.567560000000     0          
O        O      0.958040000000     0.666430000000     0.554980000000     0          
O        O      0.943840000000     0.567410000000     0.721820000000     0          
O        O      0.345580000000     0.833420000000     0.721960000000     0          
O        O      0.849090000000     0.388750000000     0.758760000000     0          
O        O      0.741930000000     0.428740000000     0.888780000000     0          
O        O      0.685700000000     0.960840000000     0.610430000000     0          
O        O      0.556110000000     0.221060000000     0.154280000000     0          


