data_zeolite

_audit_creation_method RASPA-1.0
_audit_creation_date 2021-6-7
_audit_author_name ''

_cell_length_a    18.102
_cell_length_b    18.102
_cell_length_c    7.618
_cell_angle_alpha 90
_cell_angle_beta  90
_cell_angle_gamma 120
_cell_volume      34589.5

_symmetry_cell_setting          hexagonal
_symmetry_space_group_name_Hall 'P 1'
_symmetry_space_group_name_H-M  'P 1'
_symmetry_Int_Tables_number     1

_symmetry_equiv_pos_as_xyz 'x,y,z'

loop_
_atom_site_label
_atom_site_type_symbol
_atom_site_fract_x
_atom_site_fract_y
_atom_site_fract_z
_atom_site_charge
T        Si     0.047150000000     0.178050000000     0.012175000000     0          
T        Si     0.246700000000     0.081200000000     0.062500000000     0          
T        Si     0.369100000000     0.047150000000     0.137175000000     0          
T        Si     0.165500000000     0.246700000000     0.187500000000     0          
T        Si     0.321950000000     0.369100000000     0.012175000000     0          
T        Si     0.418800000000     0.165500000000     0.062500000000     0          
T        Si     0.452850000000     0.321950000000     0.137175000000     0          
T        Si     0.253300000000     0.418800000000     0.187500000000     0          
T        Si     0.130900000000     0.452850000000     0.012175000000     0          
T        Si     0.334500000000     0.253300000000     0.062500000000     0          
T        Si     0.178050000000     0.130900000000     0.137175000000     0          
T        Si     0.081200000000     0.334500000000     0.187500000000     0          
T        Si     0.321950000000     0.452850000000     0.112825000000     0          
T        Si     0.418800000000     0.253300000000     0.062500000000     0          
T        Si     0.369100000000     0.321950000000     0.237825000000     0          
T        Si     0.165500000000     0.418800000000     0.187500000000     0          
T        Si     0.047150000000     0.369100000000     0.112825000000     0          
T        Si     0.246700000000     0.165500000000     0.062500000000     0          
T        Si     0.178050000000     0.047150000000     0.237825000000     0          
T        Si     0.081200000000     0.246700000000     0.187500000000     0          
T        Si     0.130900000000     0.178050000000     0.112825000000     0          
T        Si     0.334500000000     0.081200000000     0.062500000000     0          
T        Si     0.452850000000     0.130900000000     0.237825000000     0          
T        Si     0.253300000000     0.334500000000     0.187500000000     0          
T        Si     0.452850000000     0.321950000000     0.237825000000     0          
T        Si     0.130900000000     0.452850000000     0.112825000000     0          
T        Si     0.178050000000     0.130900000000     0.237825000000     0          
T        Si     0.047150000000     0.178050000000     0.112825000000     0          
T        Si     0.369100000000     0.047150000000     0.237825000000     0          
T        Si     0.321950000000     0.369100000000     0.112825000000     0          
T        Si     0.178050000000     0.047150000000     0.137175000000     0          
T        Si     0.130900000000     0.178050000000     0.012175000000     0          
T        Si     0.452850000000     0.130900000000     0.137175000000     0          
T        Si     0.321950000000     0.452850000000     0.012175000000     0          
T        Si     0.369100000000     0.321950000000     0.137175000000     0          
T        Si     0.047150000000     0.369100000000     0.012175000000     0          
T        Si     0.047150000000     0.178050000000     0.262175000000     0          
T        Si     0.246700000000     0.081200000000     0.312500000000     0          
T        Si     0.369100000000     0.047150000000     0.387175000000     0          
T        Si     0.165500000000     0.246700000000     0.437500000000     0          
T        Si     0.321950000000     0.369100000000     0.262175000000     0          
T        Si     0.418800000000     0.165500000000     0.312500000000     0          
T        Si     0.452850000000     0.321950000000     0.387175000000     0          
T        Si     0.253300000000     0.418800000000     0.437500000000     0          
T        Si     0.130900000000     0.452850000000     0.262175000000     0          
T        Si     0.334500000000     0.253300000000     0.312500000000     0          
T        Si     0.178050000000     0.130900000000     0.387175000000     0          
T        Si     0.081200000000     0.334500000000     0.437500000000     0          
T        Si     0.321950000000     0.452850000000     0.362825000000     0          
T        Si     0.418800000000     0.253300000000     0.312500000000     0          
T        Si     0.369100000000     0.321950000000     0.487825000000     0          
T        Si     0.165500000000     0.418800000000     0.437500000000     0          
T        Si     0.047150000000     0.369100000000     0.362825000000     0          
T        Si     0.246700000000     0.165500000000     0.312500000000     0          
T        Si     0.178050000000     0.047150000000     0.487825000000     0          
T        Si     0.081200000000     0.246700000000     0.437500000000     0          
T        Si     0.130900000000     0.178050000000     0.362825000000     0          
T        Si     0.334500000000     0.081200000000     0.312500000000     0          
T        Si     0.452850000000     0.130900000000     0.487825000000     0          
T        Si     0.253300000000     0.334500000000     0.437500000000     0          
T        Si     0.452850000000     0.321950000000     0.487825000000     0          
T        Si     0.130900000000     0.452850000000     0.362825000000     0          
T        Si     0.178050000000     0.130900000000     0.487825000000     0          
T        Si     0.047150000000     0.178050000000     0.362825000000     0          
T        Si     0.369100000000     0.047150000000     0.487825000000     0          
T        Si     0.321950000000     0.369100000000     0.362825000000     0          
T        Si     0.178050000000     0.047150000000     0.387175000000     0          
T        Si     0.130900000000     0.178050000000     0.262175000000     0          
T        Si     0.452850000000     0.130900000000     0.387175000000     0          
T        Si     0.321950000000     0.452850000000     0.262175000000     0          
T        Si     0.369100000000     0.321950000000     0.387175000000     0          
T        Si     0.047150000000     0.369100000000     0.262175000000     0          
T        Si     0.047150000000     0.178050000000     0.512175000000     0          
T        Si     0.246700000000     0.081200000000     0.562500000000     0          
T        Si     0.369100000000     0.047150000000     0.637175000000     0          
T        Si     0.165500000000     0.246700000000     0.687500000000     0          
T        Si     0.321950000000     0.369100000000     0.512175000000     0          
T        Si     0.418800000000     0.165500000000     0.562500000000     0          
T        Si     0.452850000000     0.321950000000     0.637175000000     0          
T        Si     0.253300000000     0.418800000000     0.687500000000     0          
T        Si     0.130900000000     0.452850000000     0.512175000000     0          
T        Si     0.334500000000     0.253300000000     0.562500000000     0          
T        Si     0.178050000000     0.130900000000     0.637175000000     0          
T        Si     0.081200000000     0.334500000000     0.687500000000     0          
T        Si     0.321950000000     0.452850000000     0.612825000000     0          
T        Si     0.418800000000     0.253300000000     0.562500000000     0          
T        Si     0.369100000000     0.321950000000     0.737825000000     0          
T        Si     0.165500000000     0.418800000000     0.687500000000     0          
T        Si     0.047150000000     0.369100000000     0.612825000000     0          
T        Si     0.246700000000     0.165500000000     0.562500000000     0          
T        Si     0.178050000000     0.047150000000     0.737825000000     0          
T        Si     0.081200000000     0.246700000000     0.687500000000     0          
T        Si     0.130900000000     0.178050000000     0.612825000000     0          
T        Si     0.334500000000     0.081200000000     0.562500000000     0          
T        Si     0.452850000000     0.130900000000     0.737825000000     0          
T        Si     0.253300000000     0.334500000000     0.687500000000     0          
T        Si     0.452850000000     0.321950000000     0.737825000000     0          
T        Si     0.130900000000     0.452850000000     0.612825000000     0          
T        Si     0.178050000000     0.130900000000     0.737825000000     0          
T        Si     0.047150000000     0.178050000000     0.612825000000     0          
T        Si     0.369100000000     0.047150000000     0.737825000000     0          
T        Si     0.321950000000     0.369100000000     0.612825000000     0          
T        Si     0.178050000000     0.047150000000     0.637175000000     0          
T        Si     0.130900000000     0.178050000000     0.512175000000     0          
T        Si     0.452850000000     0.130900000000     0.637175000000     0          
T        Si     0.321950000000     0.452850000000     0.512175000000     0          
T        Si     0.369100000000     0.321950000000     0.637175000000     0          
T        Si     0.047150000000     0.369100000000     0.512175000000     0          
T        Si     0.047150000000     0.178050000000     0.762175000000     0          
T        Si     0.246700000000     0.081200000000     0.812500000000     0          
T        Si     0.369100000000     0.047150000000     0.887175000000     0          
T        Si     0.165500000000     0.246700000000     0.937500000000     0          
T        Si     0.321950000000     0.369100000000     0.762175000000     0          
T        Si     0.418800000000     0.165500000000     0.812500000000     0          
T        Si     0.452850000000     0.321950000000     0.887175000000     0          
T        Si     0.253300000000     0.418800000000     0.937500000000     0          
T        Si     0.130900000000     0.452850000000     0.762175000000     0          
T        Si     0.334500000000     0.253300000000     0.812500000000     0          
T        Si     0.178050000000     0.130900000000     0.887175000000     0          
T        Si     0.081200000000     0.334500000000     0.937500000000     0          
T        Si     0.321950000000     0.452850000000     0.862825000000     0          
T        Si     0.418800000000     0.253300000000     0.812500000000     0          
T        Si     0.369100000000     0.321950000000     0.987825000000     0          
T        Si     0.165500000000     0.418800000000     0.937500000000     0          
T        Si     0.047150000000     0.369100000000     0.862825000000     0          
T        Si     0.246700000000     0.165500000000     0.812500000000     0          
T        Si     0.178050000000     0.047150000000     0.987825000000     0          
T        Si     0.081200000000     0.246700000000     0.937500000000     0          
T        Si     0.130900000000     0.178050000000     0.862825000000     0          
T        Si     0.334500000000     0.081200000000     0.812500000000     0          
T        Si     0.452850000000     0.130900000000     0.987825000000     0          
T        Si     0.253300000000     0.334500000000     0.937500000000     0          
T        Si     0.452850000000     0.321950000000     0.987825000000     0          
T        Si     0.130900000000     0.452850000000     0.862825000000     0          
T        Si     0.178050000000     0.130900000000     0.987825000000     0          
T        Si     0.047150000000     0.178050000000     0.862825000000     0          
T        Si     0.369100000000     0.047150000000     0.987825000000     0          
T        Si     0.321950000000     0.369100000000     0.862825000000     0          
T        Si     0.178050000000     0.047150000000     0.887175000000     0          
T        Si     0.130900000000     0.178050000000     0.762175000000     0          
T        Si     0.452850000000     0.130900000000     0.887175000000     0          
T        Si     0.321950000000     0.452850000000     0.762175000000     0          
T        Si     0.369100000000     0.321950000000     0.887175000000     0          
T        Si     0.047150000000     0.369100000000     0.762175000000     0          
T        Si     0.047150000000     0.678050000000     0.012175000000     0          
T        Si     0.246700000000     0.581200000000     0.062500000000     0          
T        Si     0.369100000000     0.547150000000     0.137175000000     0          
T        Si     0.165500000000     0.746700000000     0.187500000000     0          
T        Si     0.321950000000     0.869100000000     0.012175000000     0          
T        Si     0.418800000000     0.665500000000     0.062500000000     0          
T        Si     0.452850000000     0.821950000000     0.137175000000     0          
T        Si     0.253300000000     0.918800000000     0.187500000000     0          
T        Si     0.130900000000     0.952850000000     0.012175000000     0          
T        Si     0.334500000000     0.753300000000     0.062500000000     0          
T        Si     0.178050000000     0.630900000000     0.137175000000     0          
T        Si     0.081200000000     0.834500000000     0.187500000000     0          
T        Si     0.321950000000     0.952850000000     0.112825000000     0          
T        Si     0.418800000000     0.753300000000     0.062500000000     0          
T        Si     0.369100000000     0.821950000000     0.237825000000     0          
T        Si     0.165500000000     0.918800000000     0.187500000000     0          
T        Si     0.047150000000     0.869100000000     0.112825000000     0          
T        Si     0.246700000000     0.665500000000     0.062500000000     0          
T        Si     0.178050000000     0.547150000000     0.237825000000     0          
T        Si     0.081200000000     0.746700000000     0.187500000000     0          
T        Si     0.130900000000     0.678050000000     0.112825000000     0          
T        Si     0.334500000000     0.581200000000     0.062500000000     0          
T        Si     0.452850000000     0.630900000000     0.237825000000     0          
T        Si     0.253300000000     0.834500000000     0.187500000000     0          
T        Si     0.452850000000     0.821950000000     0.237825000000     0          
T        Si     0.130900000000     0.952850000000     0.112825000000     0          
T        Si     0.178050000000     0.630900000000     0.237825000000     0          
T        Si     0.047150000000     0.678050000000     0.112825000000     0          
T        Si     0.369100000000     0.547150000000     0.237825000000     0          
T        Si     0.321950000000     0.869100000000     0.112825000000     0          
T        Si     0.178050000000     0.547150000000     0.137175000000     0          
T        Si     0.130900000000     0.678050000000     0.012175000000     0          
T        Si     0.452850000000     0.630900000000     0.137175000000     0          
T        Si     0.321950000000     0.952850000000     0.012175000000     0          
T        Si     0.369100000000     0.821950000000     0.137175000000     0          
T        Si     0.047150000000     0.869100000000     0.012175000000     0          
T        Si     0.047150000000     0.678050000000     0.262175000000     0          
T        Si     0.246700000000     0.581200000000     0.312500000000     0          
T        Si     0.369100000000     0.547150000000     0.387175000000     0          
T        Si     0.165500000000     0.746700000000     0.437500000000     0          
T        Si     0.321950000000     0.869100000000     0.262175000000     0          
T        Si     0.418800000000     0.665500000000     0.312500000000     0          
T        Si     0.452850000000     0.821950000000     0.387175000000     0          
T        Si     0.253300000000     0.918800000000     0.437500000000     0          
T        Si     0.130900000000     0.952850000000     0.262175000000     0          
T        Si     0.334500000000     0.753300000000     0.312500000000     0          
T        Si     0.178050000000     0.630900000000     0.387175000000     0          
T        Si     0.081200000000     0.834500000000     0.437500000000     0          
T        Si     0.321950000000     0.952850000000     0.362825000000     0          
T        Si     0.418800000000     0.753300000000     0.312500000000     0          
T        Si     0.369100000000     0.821950000000     0.487825000000     0          
T        Si     0.165500000000     0.918800000000     0.437500000000     0          
T        Si     0.047150000000     0.869100000000     0.362825000000     0          
T        Si     0.246700000000     0.665500000000     0.312500000000     0          
T        Si     0.178050000000     0.547150000000     0.487825000000     0          
T        Si     0.081200000000     0.746700000000     0.437500000000     0          
T        Si     0.130900000000     0.678050000000     0.362825000000     0          
T        Si     0.334500000000     0.581200000000     0.312500000000     0          
T        Si     0.452850000000     0.630900000000     0.487825000000     0          
T        Si     0.253300000000     0.834500000000     0.437500000000     0          
T        Si     0.452850000000     0.821950000000     0.487825000000     0          
T        Si     0.130900000000     0.952850000000     0.362825000000     0          
T        Si     0.178050000000     0.630900000000     0.487825000000     0          
T        Si     0.047150000000     0.678050000000     0.362825000000     0          
T        Si     0.369100000000     0.547150000000     0.487825000000     0          
T        Si     0.321950000000     0.869100000000     0.362825000000     0          
T        Si     0.178050000000     0.547150000000     0.387175000000     0          
T        Si     0.130900000000     0.678050000000     0.262175000000     0          
T        Si     0.452850000000     0.630900000000     0.387175000000     0          
T        Si     0.321950000000     0.952850000000     0.262175000000     0          
T        Si     0.369100000000     0.821950000000     0.387175000000     0          
T        Si     0.047150000000     0.869100000000     0.262175000000     0          
T        Si     0.047150000000     0.678050000000     0.512175000000     0          
T        Si     0.246700000000     0.581200000000     0.562500000000     0          
T        Si     0.369100000000     0.547150000000     0.637175000000     0          
T        Si     0.165500000000     0.746700000000     0.687500000000     0          
T        Si     0.321950000000     0.869100000000     0.512175000000     0          
T        Si     0.418800000000     0.665500000000     0.562500000000     0          
T        Si     0.452850000000     0.821950000000     0.637175000000     0          
T        Si     0.253300000000     0.918800000000     0.687500000000     0          
T        Si     0.130900000000     0.952850000000     0.512175000000     0          
T        Si     0.334500000000     0.753300000000     0.562500000000     0          
T        Si     0.178050000000     0.630900000000     0.637175000000     0          
T        Si     0.081200000000     0.834500000000     0.687500000000     0          
T        Si     0.321950000000     0.952850000000     0.612825000000     0          
T        Si     0.418800000000     0.753300000000     0.562500000000     0          
T        Si     0.369100000000     0.821950000000     0.737825000000     0          
T        Si     0.165500000000     0.918800000000     0.687500000000     0          
T        Si     0.047150000000     0.869100000000     0.612825000000     0          
T        Si     0.246700000000     0.665500000000     0.562500000000     0          
T        Si     0.178050000000     0.547150000000     0.737825000000     0          
T        Si     0.081200000000     0.746700000000     0.687500000000     0          
T        Si     0.130900000000     0.678050000000     0.612825000000     0          
T        Si     0.334500000000     0.581200000000     0.562500000000     0          
T        Si     0.452850000000     0.630900000000     0.737825000000     0          
T        Si     0.253300000000     0.834500000000     0.687500000000     0          
T        Si     0.452850000000     0.821950000000     0.737825000000     0          
T        Si     0.130900000000     0.952850000000     0.612825000000     0          
T        Si     0.178050000000     0.630900000000     0.737825000000     0          
T        Si     0.047150000000     0.678050000000     0.612825000000     0          
T        Si     0.369100000000     0.547150000000     0.737825000000     0          
T        Si     0.321950000000     0.869100000000     0.612825000000     0          
T        Si     0.178050000000     0.547150000000     0.637175000000     0          
T        Si     0.130900000000     0.678050000000     0.512175000000     0          
T        Si     0.452850000000     0.630900000000     0.637175000000     0          
T        Si     0.321950000000     0.952850000000     0.512175000000     0          
T        Si     0.369100000000     0.821950000000     0.637175000000     0          
T        Si     0.047150000000     0.869100000000     0.512175000000     0          
T        Si     0.047150000000     0.678050000000     0.762175000000     0          
T        Si     0.246700000000     0.581200000000     0.812500000000     0          
T        Si     0.369100000000     0.547150000000     0.887175000000     0          
T        Si     0.165500000000     0.746700000000     0.937500000000     0          
T        Si     0.321950000000     0.869100000000     0.762175000000     0          
T        Si     0.418800000000     0.665500000000     0.812500000000     0          
T        Si     0.452850000000     0.821950000000     0.887175000000     0          
T        Si     0.253300000000     0.918800000000     0.937500000000     0          
T        Si     0.130900000000     0.952850000000     0.762175000000     0          
T        Si     0.334500000000     0.753300000000     0.812500000000     0          
T        Si     0.178050000000     0.630900000000     0.887175000000     0          
T        Si     0.081200000000     0.834500000000     0.937500000000     0          
T        Si     0.321950000000     0.952850000000     0.862825000000     0          
T        Si     0.418800000000     0.753300000000     0.812500000000     0          
T        Si     0.369100000000     0.821950000000     0.987825000000     0          
T        Si     0.165500000000     0.918800000000     0.937500000000     0          
T        Si     0.047150000000     0.869100000000     0.862825000000     0          
T        Si     0.246700000000     0.665500000000     0.812500000000     0          
T        Si     0.178050000000     0.547150000000     0.987825000000     0          
T        Si     0.081200000000     0.746700000000     0.937500000000     0          
T        Si     0.130900000000     0.678050000000     0.862825000000     0          
T        Si     0.334500000000     0.581200000000     0.812500000000     0          
T        Si     0.452850000000     0.630900000000     0.987825000000     0          
T        Si     0.253300000000     0.834500000000     0.937500000000     0          
T        Si     0.452850000000     0.821950000000     0.987825000000     0          
T        Si     0.130900000000     0.952850000000     0.862825000000     0          
T        Si     0.178050000000     0.630900000000     0.987825000000     0          
T        Si     0.047150000000     0.678050000000     0.862825000000     0          
T        Si     0.369100000000     0.547150000000     0.987825000000     0          
T        Si     0.321950000000     0.869100000000     0.862825000000     0          
T        Si     0.178050000000     0.547150000000     0.887175000000     0          
T        Si     0.130900000000     0.678050000000     0.762175000000     0          
T        Si     0.452850000000     0.630900000000     0.887175000000     0          
T        Si     0.321950000000     0.952850000000     0.762175000000     0          
T        Si     0.369100000000     0.821950000000     0.887175000000     0          
T        Si     0.047150000000     0.869100000000     0.762175000000     0          
T        Si     0.547150000000     0.178050000000     0.012175000000     0          
T        Si     0.746700000000     0.081200000000     0.062500000000     0          
T        Si     0.869100000000     0.047150000000     0.137175000000     0          
T        Si     0.665500000000     0.246700000000     0.187500000000     0          
T        Si     0.821950000000     0.369100000000     0.012175000000     0          
T        Si     0.918800000000     0.165500000000     0.062500000000     0          
T        Si     0.952850000000     0.321950000000     0.137175000000     0          
T        Si     0.753300000000     0.418800000000     0.187500000000     0          
T        Si     0.630900000000     0.452850000000     0.012175000000     0          
T        Si     0.834500000000     0.253300000000     0.062500000000     0          
T        Si     0.678050000000     0.130900000000     0.137175000000     0          
T        Si     0.581200000000     0.334500000000     0.187500000000     0          
T        Si     0.821950000000     0.452850000000     0.112825000000     0          
T        Si     0.918800000000     0.253300000000     0.062500000000     0          
T        Si     0.869100000000     0.321950000000     0.237825000000     0          
T        Si     0.665500000000     0.418800000000     0.187500000000     0          
T        Si     0.547150000000     0.369100000000     0.112825000000     0          
T        Si     0.746700000000     0.165500000000     0.062500000000     0          
T        Si     0.678050000000     0.047150000000     0.237825000000     0          
T        Si     0.581200000000     0.246700000000     0.187500000000     0          
T        Si     0.630900000000     0.178050000000     0.112825000000     0          
T        Si     0.834500000000     0.081200000000     0.062500000000     0          
T        Si     0.952850000000     0.130900000000     0.237825000000     0          
T        Si     0.753300000000     0.334500000000     0.187500000000     0          
T        Si     0.952850000000     0.321950000000     0.237825000000     0          
T        Si     0.630900000000     0.452850000000     0.112825000000     0          
T        Si     0.678050000000     0.130900000000     0.237825000000     0          
T        Si     0.547150000000     0.178050000000     0.112825000000     0          
T        Si     0.869100000000     0.047150000000     0.237825000000     0          
T        Si     0.821950000000     0.369100000000     0.112825000000     0          
T        Si     0.678050000000     0.047150000000     0.137175000000     0          
T        Si     0.630900000000     0.178050000000     0.012175000000     0          
T        Si     0.952850000000     0.130900000000     0.137175000000     0          
T        Si     0.821950000000     0.452850000000     0.012175000000     0          
T        Si     0.869100000000     0.321950000000     0.137175000000     0          
T        Si     0.547150000000     0.369100000000     0.012175000000     0          
T        Si     0.547150000000     0.178050000000     0.262175000000     0          
T        Si     0.746700000000     0.081200000000     0.312500000000     0          
T        Si     0.869100000000     0.047150000000     0.387175000000     0          
T        Si     0.665500000000     0.246700000000     0.437500000000     0          
T        Si     0.821950000000     0.369100000000     0.262175000000     0          
T        Si     0.918800000000     0.165500000000     0.312500000000     0          
T        Si     0.952850000000     0.321950000000     0.387175000000     0          
T        Si     0.753300000000     0.418800000000     0.437500000000     0          
T        Si     0.630900000000     0.452850000000     0.262175000000     0          
T        Si     0.834500000000     0.253300000000     0.312500000000     0          
T        Si     0.678050000000     0.130900000000     0.387175000000     0          
T        Si     0.581200000000     0.334500000000     0.437500000000     0          
T        Si     0.821950000000     0.452850000000     0.362825000000     0          
T        Si     0.918800000000     0.253300000000     0.312500000000     0          
T        Si     0.869100000000     0.321950000000     0.487825000000     0          
T        Si     0.665500000000     0.418800000000     0.437500000000     0          
T        Si     0.547150000000     0.369100000000     0.362825000000     0          
T        Si     0.746700000000     0.165500000000     0.312500000000     0          
T        Si     0.678050000000     0.047150000000     0.487825000000     0          
T        Si     0.581200000000     0.246700000000     0.437500000000     0          
T        Si     0.630900000000     0.178050000000     0.362825000000     0          
T        Si     0.834500000000     0.081200000000     0.312500000000     0          
T        Si     0.952850000000     0.130900000000     0.487825000000     0          
T        Si     0.753300000000     0.334500000000     0.437500000000     0          
T        Si     0.952850000000     0.321950000000     0.487825000000     0          
T        Si     0.630900000000     0.452850000000     0.362825000000     0          
T        Si     0.678050000000     0.130900000000     0.487825000000     0          
T        Si     0.547150000000     0.178050000000     0.362825000000     0          
T        Si     0.869100000000     0.047150000000     0.487825000000     0          
T        Si     0.821950000000     0.369100000000     0.362825000000     0          
T        Si     0.678050000000     0.047150000000     0.387175000000     0          
T        Si     0.630900000000     0.178050000000     0.262175000000     0          
T        Si     0.952850000000     0.130900000000     0.387175000000     0          
T        Si     0.821950000000     0.452850000000     0.262175000000     0          
T        Si     0.869100000000     0.321950000000     0.387175000000     0          
T        Si     0.547150000000     0.369100000000     0.262175000000     0          
T        Si     0.547150000000     0.178050000000     0.512175000000     0          
T        Si     0.746700000000     0.081200000000     0.562500000000     0          
T        Si     0.869100000000     0.047150000000     0.637175000000     0          
T        Si     0.665500000000     0.246700000000     0.687500000000     0          
T        Si     0.821950000000     0.369100000000     0.512175000000     0          
T        Si     0.918800000000     0.165500000000     0.562500000000     0          
T        Si     0.952850000000     0.321950000000     0.637175000000     0          
T        Si     0.753300000000     0.418800000000     0.687500000000     0          
T        Si     0.630900000000     0.452850000000     0.512175000000     0          
T        Si     0.834500000000     0.253300000000     0.562500000000     0          
T        Si     0.678050000000     0.130900000000     0.637175000000     0          
T        Si     0.581200000000     0.334500000000     0.687500000000     0          
T        Si     0.821950000000     0.452850000000     0.612825000000     0          
T        Si     0.918800000000     0.253300000000     0.562500000000     0          
T        Si     0.869100000000     0.321950000000     0.737825000000     0          
T        Si     0.665500000000     0.418800000000     0.687500000000     0          
T        Si     0.547150000000     0.369100000000     0.612825000000     0          
T        Si     0.746700000000     0.165500000000     0.562500000000     0          
T        Si     0.678050000000     0.047150000000     0.737825000000     0          
T        Si     0.581200000000     0.246700000000     0.687500000000     0          
T        Si     0.630900000000     0.178050000000     0.612825000000     0          
T        Si     0.834500000000     0.081200000000     0.562500000000     0          
T        Si     0.952850000000     0.130900000000     0.737825000000     0          
T        Si     0.753300000000     0.334500000000     0.687500000000     0          
T        Si     0.952850000000     0.321950000000     0.737825000000     0          
T        Si     0.630900000000     0.452850000000     0.612825000000     0          
T        Si     0.678050000000     0.130900000000     0.737825000000     0          
T        Si     0.547150000000     0.178050000000     0.612825000000     0          
T        Si     0.869100000000     0.047150000000     0.737825000000     0          
T        Si     0.821950000000     0.369100000000     0.612825000000     0          
T        Si     0.678050000000     0.047150000000     0.637175000000     0          
T        Si     0.630900000000     0.178050000000     0.512175000000     0          
T        Si     0.952850000000     0.130900000000     0.637175000000     0          
T        Si     0.821950000000     0.452850000000     0.512175000000     0          
T        Si     0.869100000000     0.321950000000     0.637175000000     0          
T        Si     0.547150000000     0.369100000000     0.512175000000     0          
T        Si     0.547150000000     0.178050000000     0.762175000000     0          
T        Si     0.746700000000     0.081200000000     0.812500000000     0          
T        Si     0.869100000000     0.047150000000     0.887175000000     0          
T        Si     0.665500000000     0.246700000000     0.937500000000     0          
T        Si     0.821950000000     0.369100000000     0.762175000000     0          
T        Si     0.918800000000     0.165500000000     0.812500000000     0          
T        Si     0.952850000000     0.321950000000     0.887175000000     0          
T        Si     0.753300000000     0.418800000000     0.937500000000     0          
T        Si     0.630900000000     0.452850000000     0.762175000000     0          
T        Si     0.834500000000     0.253300000000     0.812500000000     0          
T        Si     0.678050000000     0.130900000000     0.887175000000     0          
T        Si     0.581200000000     0.334500000000     0.937500000000     0          
T        Si     0.821950000000     0.452850000000     0.862825000000     0          
T        Si     0.918800000000     0.253300000000     0.812500000000     0          
T        Si     0.869100000000     0.321950000000     0.987825000000     0          
T        Si     0.665500000000     0.418800000000     0.937500000000     0          
T        Si     0.547150000000     0.369100000000     0.862825000000     0          
T        Si     0.746700000000     0.165500000000     0.812500000000     0          
T        Si     0.678050000000     0.047150000000     0.987825000000     0          
T        Si     0.581200000000     0.246700000000     0.937500000000     0          
T        Si     0.630900000000     0.178050000000     0.862825000000     0          
T        Si     0.834500000000     0.081200000000     0.812500000000     0          
T        Si     0.952850000000     0.130900000000     0.987825000000     0          
T        Si     0.753300000000     0.334500000000     0.937500000000     0          
T        Si     0.952850000000     0.321950000000     0.987825000000     0          
T        Si     0.630900000000     0.452850000000     0.862825000000     0          
T        Si     0.678050000000     0.130900000000     0.987825000000     0          
T        Si     0.547150000000     0.178050000000     0.862825000000     0          
T        Si     0.869100000000     0.047150000000     0.987825000000     0          
T        Si     0.821950000000     0.369100000000     0.862825000000     0          
T        Si     0.678050000000     0.047150000000     0.887175000000     0          
T        Si     0.630900000000     0.178050000000     0.762175000000     0          
T        Si     0.952850000000     0.130900000000     0.887175000000     0          
T        Si     0.821950000000     0.452850000000     0.762175000000     0          
T        Si     0.869100000000     0.321950000000     0.887175000000     0          
T        Si     0.547150000000     0.369100000000     0.762175000000     0          
T        Si     0.547150000000     0.678050000000     0.012175000000     0          
T        Si     0.746700000000     0.581200000000     0.062500000000     0          
T        Si     0.869100000000     0.547150000000     0.137175000000     0          
T        Si     0.665500000000     0.746700000000     0.187500000000     0          
T        Si     0.821950000000     0.869100000000     0.012175000000     0          
T        Si     0.918800000000     0.665500000000     0.062500000000     0          
T        Si     0.952850000000     0.821950000000     0.137175000000     0          
T        Si     0.753300000000     0.918800000000     0.187500000000     0          
T        Si     0.630900000000     0.952850000000     0.012175000000     0          
T        Si     0.834500000000     0.753300000000     0.062500000000     0          
T        Si     0.678050000000     0.630900000000     0.137175000000     0          
T        Si     0.581200000000     0.834500000000     0.187500000000     0          
T        Si     0.821950000000     0.952850000000     0.112825000000     0          
T        Si     0.918800000000     0.753300000000     0.062500000000     0          
T        Si     0.869100000000     0.821950000000     0.237825000000     0          
T        Si     0.665500000000     0.918800000000     0.187500000000     0          
T        Si     0.547150000000     0.869100000000     0.112825000000     0          
T        Si     0.746700000000     0.665500000000     0.062500000000     0          
T        Si     0.678050000000     0.547150000000     0.237825000000     0          
T        Si     0.581200000000     0.746700000000     0.187500000000     0          
T        Si     0.630900000000     0.678050000000     0.112825000000     0          
T        Si     0.834500000000     0.581200000000     0.062500000000     0          
T        Si     0.952850000000     0.630900000000     0.237825000000     0          
T        Si     0.753300000000     0.834500000000     0.187500000000     0          
T        Si     0.952850000000     0.821950000000     0.237825000000     0          
T        Si     0.630900000000     0.952850000000     0.112825000000     0          
T        Si     0.678050000000     0.630900000000     0.237825000000     0          
T        Si     0.547150000000     0.678050000000     0.112825000000     0          
T        Si     0.869100000000     0.547150000000     0.237825000000     0          
T        Si     0.821950000000     0.869100000000     0.112825000000     0          
T        Si     0.678050000000     0.547150000000     0.137175000000     0          
T        Si     0.630900000000     0.678050000000     0.012175000000     0          
T        Si     0.952850000000     0.630900000000     0.137175000000     0          
T        Si     0.821950000000     0.952850000000     0.012175000000     0          
T        Si     0.869100000000     0.821950000000     0.137175000000     0          
T        Si     0.547150000000     0.869100000000     0.012175000000     0          
T        Si     0.547150000000     0.678050000000     0.262175000000     0          
T        Si     0.746700000000     0.581200000000     0.312500000000     0          
T        Si     0.869100000000     0.547150000000     0.387175000000     0          
T        Si     0.665500000000     0.746700000000     0.437500000000     0          
T        Si     0.821950000000     0.869100000000     0.262175000000     0          
T        Si     0.918800000000     0.665500000000     0.312500000000     0          
T        Si     0.952850000000     0.821950000000     0.387175000000     0          
T        Si     0.753300000000     0.918800000000     0.437500000000     0          
T        Si     0.630900000000     0.952850000000     0.262175000000     0          
T        Si     0.834500000000     0.753300000000     0.312500000000     0          
T        Si     0.678050000000     0.630900000000     0.387175000000     0          
T        Si     0.581200000000     0.834500000000     0.437500000000     0          
T        Si     0.821950000000     0.952850000000     0.362825000000     0          
T        Si     0.918800000000     0.753300000000     0.312500000000     0          
T        Si     0.869100000000     0.821950000000     0.487825000000     0          
T        Si     0.665500000000     0.918800000000     0.437500000000     0          
T        Si     0.547150000000     0.869100000000     0.362825000000     0          
T        Si     0.746700000000     0.665500000000     0.312500000000     0          
T        Si     0.678050000000     0.547150000000     0.487825000000     0          
T        Si     0.581200000000     0.746700000000     0.437500000000     0          
T        Si     0.630900000000     0.678050000000     0.362825000000     0          
T        Si     0.834500000000     0.581200000000     0.312500000000     0          
T        Si     0.952850000000     0.630900000000     0.487825000000     0          
T        Si     0.753300000000     0.834500000000     0.437500000000     0          
T        Si     0.952850000000     0.821950000000     0.487825000000     0          
T        Si     0.630900000000     0.952850000000     0.362825000000     0          
T        Si     0.678050000000     0.630900000000     0.487825000000     0          
T        Si     0.547150000000     0.678050000000     0.362825000000     0          
T        Si     0.869100000000     0.547150000000     0.487825000000     0          
T        Si     0.821950000000     0.869100000000     0.362825000000     0          
T        Si     0.678050000000     0.547150000000     0.387175000000     0          
T        Si     0.630900000000     0.678050000000     0.262175000000     0          
T        Si     0.952850000000     0.630900000000     0.387175000000     0          
T        Si     0.821950000000     0.952850000000     0.262175000000     0          
T        Si     0.869100000000     0.821950000000     0.387175000000     0          
T        Si     0.547150000000     0.869100000000     0.262175000000     0          
T        Si     0.547150000000     0.678050000000     0.512175000000     0          
T        Si     0.746700000000     0.581200000000     0.562500000000     0          
T        Si     0.869100000000     0.547150000000     0.637175000000     0          
T        Si     0.665500000000     0.746700000000     0.687500000000     0          
T        Si     0.821950000000     0.869100000000     0.512175000000     0          
T        Si     0.918800000000     0.665500000000     0.562500000000     0          
T        Si     0.952850000000     0.821950000000     0.637175000000     0          
T        Si     0.753300000000     0.918800000000     0.687500000000     0          
T        Si     0.630900000000     0.952850000000     0.512175000000     0          
T        Si     0.834500000000     0.753300000000     0.562500000000     0          
T        Si     0.678050000000     0.630900000000     0.637175000000     0          
T        Si     0.581200000000     0.834500000000     0.687500000000     0          
T        Si     0.821950000000     0.952850000000     0.612825000000     0          
T        Si     0.918800000000     0.753300000000     0.562500000000     0          
T        Si     0.869100000000     0.821950000000     0.737825000000     0          
T        Si     0.665500000000     0.918800000000     0.687500000000     0          
T        Si     0.547150000000     0.869100000000     0.612825000000     0          
T        Si     0.746700000000     0.665500000000     0.562500000000     0          
T        Si     0.678050000000     0.547150000000     0.737825000000     0          
T        Si     0.581200000000     0.746700000000     0.687500000000     0          
T        Si     0.630900000000     0.678050000000     0.612825000000     0          
T        Si     0.834500000000     0.581200000000     0.562500000000     0          
T        Si     0.952850000000     0.630900000000     0.737825000000     0          
T        Si     0.753300000000     0.834500000000     0.687500000000     0          
T        Si     0.952850000000     0.821950000000     0.737825000000     0          
T        Si     0.630900000000     0.952850000000     0.612825000000     0          
T        Si     0.678050000000     0.630900000000     0.737825000000     0          
T        Si     0.547150000000     0.678050000000     0.612825000000     0          
T        Si     0.869100000000     0.547150000000     0.737825000000     0          
T        Si     0.821950000000     0.869100000000     0.612825000000     0          
T        Si     0.678050000000     0.547150000000     0.637175000000     0          
T        Si     0.630900000000     0.678050000000     0.512175000000     0          
T        Si     0.952850000000     0.630900000000     0.637175000000     0          
T        Si     0.821950000000     0.952850000000     0.512175000000     0          
T        Si     0.869100000000     0.821950000000     0.637175000000     0          
T        Si     0.547150000000     0.869100000000     0.512175000000     0          
T        Si     0.547150000000     0.678050000000     0.762175000000     0          
T        Si     0.746700000000     0.581200000000     0.812500000000     0          
T        Si     0.869100000000     0.547150000000     0.887175000000     0          
T        Si     0.665500000000     0.746700000000     0.937500000000     0          
T        Si     0.821950000000     0.869100000000     0.762175000000     0          
T        Si     0.918800000000     0.665500000000     0.812500000000     0          
T        Si     0.952850000000     0.821950000000     0.887175000000     0          
T        Si     0.753300000000     0.918800000000     0.937500000000     0          
T        Si     0.630900000000     0.952850000000     0.762175000000     0          
T        Si     0.834500000000     0.753300000000     0.812500000000     0          
T        Si     0.678050000000     0.630900000000     0.887175000000     0          
T        Si     0.581200000000     0.834500000000     0.937500000000     0          
T        Si     0.821950000000     0.952850000000     0.862825000000     0          
T        Si     0.918800000000     0.753300000000     0.812500000000     0          
T        Si     0.869100000000     0.821950000000     0.987825000000     0          
T        Si     0.665500000000     0.918800000000     0.937500000000     0          
T        Si     0.547150000000     0.869100000000     0.862825000000     0          
T        Si     0.746700000000     0.665500000000     0.812500000000     0          
T        Si     0.678050000000     0.547150000000     0.987825000000     0          
T        Si     0.581200000000     0.746700000000     0.937500000000     0          
T        Si     0.630900000000     0.678050000000     0.862825000000     0          
T        Si     0.834500000000     0.581200000000     0.812500000000     0          
T        Si     0.952850000000     0.630900000000     0.987825000000     0          
T        Si     0.753300000000     0.834500000000     0.937500000000     0          
T        Si     0.952850000000     0.821950000000     0.987825000000     0          
T        Si     0.630900000000     0.952850000000     0.862825000000     0          
T        Si     0.678050000000     0.630900000000     0.987825000000     0          
T        Si     0.547150000000     0.678050000000     0.862825000000     0          
T        Si     0.869100000000     0.547150000000     0.987825000000     0          
T        Si     0.821950000000     0.869100000000     0.862825000000     0          
T        Si     0.678050000000     0.547150000000     0.887175000000     0          
T        Si     0.630900000000     0.678050000000     0.762175000000     0          
T        Si     0.952850000000     0.630900000000     0.887175000000     0          
T        Si     0.821950000000     0.952850000000     0.762175000000     0          
T        Si     0.869100000000     0.821950000000     0.887175000000     0          
T        Si     0.547150000000     0.869100000000     0.762175000000     0          
O        O      0.000000000000     0.140050000000     0.000000000000     0          
O        O      0.059650000000     0.218250000000     0.230625000000     0          
O        O      0.081000000000     0.161950000000     0.005675000000     0          
O        O      0.047950000000     0.191950000000     0.062500000000     0          
O        O      0.263150000000     0.131550000000     0.062500000000     0          
O        O      0.286800000000     0.073650000000     0.062500000000     0          
O        O      0.359950000000     0.000000000000     0.125000000000     0          
O        O      0.341400000000     0.059650000000     0.105625000000     0          
O        O      0.419050000000     0.081000000000     0.130675000000     0          
O        O      0.356000000000     0.047950000000     0.187500000000     0          
O        O      0.131600000000     0.263150000000     0.187500000000     0          
O        O      0.213150000000     0.286800000000     0.187500000000     0          
O        O      0.359950000000     0.359950000000     0.000000000000     0          
O        O      0.281750000000     0.341400000000     0.230625000000     0          
O        O      0.338050000000     0.419050000000     0.005675000000     0          
O        O      0.308050000000     0.356000000000     0.062500000000     0          
O        O      0.368450000000     0.131600000000     0.062500000000     0          
O        O      0.426350000000     0.213150000000     0.062500000000     0          
O        O      0.000000000000     0.359950000000     0.125000000000     0          
O        O      0.440350000000     0.281750000000     0.105625000000     0          
O        O      0.419000000000     0.338050000000     0.130675000000     0          
O        O      0.452050000000     0.308050000000     0.187500000000     0          
O        O      0.236850000000     0.368450000000     0.187500000000     0          
O        O      0.213200000000     0.426350000000     0.187500000000     0          
O        O      0.140050000000     0.000000000000     0.000000000000     0          
O        O      0.158600000000     0.440350000000     0.230625000000     0          
O        O      0.080950000000     0.419000000000     0.005675000000     0          
O        O      0.144000000000     0.452050000000     0.062500000000     0          
O        O      0.368400000000     0.236850000000     0.062500000000     0          
O        O      0.286850000000     0.213200000000     0.062500000000     0          
O        O      0.140050000000     0.140050000000     0.125000000000     0          
O        O      0.218250000000     0.158600000000     0.105625000000     0          
O        O      0.161950000000     0.080950000000     0.130675000000     0          
O        O      0.191950000000     0.144000000000     0.187500000000     0          
O        O      0.131550000000     0.368400000000     0.187500000000     0          
O        O      0.073650000000     0.286850000000     0.187500000000     0          
O        O      0.281750000000     0.440350000000     0.144375000000     0          
O        O      0.338050000000     0.419000000000     0.119325000000     0          
O        O      0.308050000000     0.452050000000     0.062500000000     0          
O        O      0.341400000000     0.281750000000     0.019375000000     0          
O        O      0.419050000000     0.338050000000     0.244325000000     0          
O        O      0.356000000000     0.308050000000     0.187500000000     0          
O        O      0.059650000000     0.341400000000     0.144375000000     0          
O        O      0.081000000000     0.419050000000     0.119325000000     0          
O        O      0.047950000000     0.356000000000     0.062500000000     0          
O        O      0.218250000000     0.059650000000     0.019375000000     0          
O        O      0.161950000000     0.081000000000     0.244325000000     0          
O        O      0.191950000000     0.047950000000     0.187500000000     0          
O        O      0.158600000000     0.218250000000     0.144375000000     0          
O        O      0.080950000000     0.161950000000     0.119325000000     0          
O        O      0.144000000000     0.191950000000     0.062500000000     0          
O        O      0.440350000000     0.158600000000     0.019375000000     0          
O        O      0.419000000000     0.080950000000     0.244325000000     0          
O        O      0.452050000000     0.144000000000     0.187500000000     0          
O        O      0.000000000000     0.359950000000     0.000000000000     0          
O        O      0.440350000000     0.281750000000     0.019375000000     0          
O        O      0.140050000000     0.000000000000     0.125000000000     0          
O        O      0.158600000000     0.440350000000     0.144375000000     0          
O        O      0.140050000000     0.140050000000     0.000000000000     0          
O        O      0.218250000000     0.158600000000     0.019375000000     0          
O        O      0.000000000000     0.140050000000     0.125000000000     0          
O        O      0.059650000000     0.218250000000     0.144375000000     0          
O        O      0.359950000000     0.000000000000     0.000000000000     0          
O        O      0.341400000000     0.059650000000     0.019375000000     0          
O        O      0.359950000000     0.359950000000     0.125000000000     0          
O        O      0.281750000000     0.341400000000     0.144375000000     0          
O        O      0.218250000000     0.059650000000     0.105625000000     0          
O        O      0.158600000000     0.218250000000     0.230625000000     0          
O        O      0.440350000000     0.158600000000     0.105625000000     0          
O        O      0.281750000000     0.440350000000     0.230625000000     0          
O        O      0.341400000000     0.281750000000     0.105625000000     0          
O        O      0.059650000000     0.341400000000     0.230625000000     0          
O        O      0.000000000000     0.140050000000     0.250000000000     0          
O        O      0.059650000000     0.218250000000     0.480625000000     0          
O        O      0.081000000000     0.161950000000     0.255675000000     0          
O        O      0.047950000000     0.191950000000     0.312500000000     0          
O        O      0.263150000000     0.131550000000     0.312500000000     0          
O        O      0.286800000000     0.073650000000     0.312500000000     0          
O        O      0.359950000000     0.000000000000     0.375000000000     0          
O        O      0.341400000000     0.059650000000     0.355625000000     0          
O        O      0.419050000000     0.081000000000     0.380675000000     0          
O        O      0.356000000000     0.047950000000     0.437500000000     0          
O        O      0.131600000000     0.263150000000     0.437500000000     0          
O        O      0.213150000000     0.286800000000     0.437500000000     0          
O        O      0.359950000000     0.359950000000     0.250000000000     0          
O        O      0.281750000000     0.341400000000     0.480625000000     0          
O        O      0.338050000000     0.419050000000     0.255675000000     0          
O        O      0.308050000000     0.356000000000     0.312500000000     0          
O        O      0.368450000000     0.131600000000     0.312500000000     0          
O        O      0.426350000000     0.213150000000     0.312500000000     0          
O        O      0.000000000000     0.359950000000     0.375000000000     0          
O        O      0.440350000000     0.281750000000     0.355625000000     0          
O        O      0.419000000000     0.338050000000     0.380675000000     0          
O        O      0.452050000000     0.308050000000     0.437500000000     0          
O        O      0.236850000000     0.368450000000     0.437500000000     0          
O        O      0.213200000000     0.426350000000     0.437500000000     0          
O        O      0.140050000000     0.000000000000     0.250000000000     0          
O        O      0.158600000000     0.440350000000     0.480625000000     0          
O        O      0.080950000000     0.419000000000     0.255675000000     0          
O        O      0.144000000000     0.452050000000     0.312500000000     0          
O        O      0.368400000000     0.236850000000     0.312500000000     0          
O        O      0.286850000000     0.213200000000     0.312500000000     0          
O        O      0.140050000000     0.140050000000     0.375000000000     0          
O        O      0.218250000000     0.158600000000     0.355625000000     0          
O        O      0.161950000000     0.080950000000     0.380675000000     0          
O        O      0.191950000000     0.144000000000     0.437500000000     0          
O        O      0.131550000000     0.368400000000     0.437500000000     0          
O        O      0.073650000000     0.286850000000     0.437500000000     0          
O        O      0.281750000000     0.440350000000     0.394375000000     0          
O        O      0.338050000000     0.419000000000     0.369325000000     0          
O        O      0.308050000000     0.452050000000     0.312500000000     0          
O        O      0.341400000000     0.281750000000     0.269375000000     0          
O        O      0.419050000000     0.338050000000     0.494325000000     0          
O        O      0.356000000000     0.308050000000     0.437500000000     0          
O        O      0.059650000000     0.341400000000     0.394375000000     0          
O        O      0.081000000000     0.419050000000     0.369325000000     0          
O        O      0.047950000000     0.356000000000     0.312500000000     0          
O        O      0.218250000000     0.059650000000     0.269375000000     0          
O        O      0.161950000000     0.081000000000     0.494325000000     0          
O        O      0.191950000000     0.047950000000     0.437500000000     0          
O        O      0.158600000000     0.218250000000     0.394375000000     0          
O        O      0.080950000000     0.161950000000     0.369325000000     0          
O        O      0.144000000000     0.191950000000     0.312500000000     0          
O        O      0.440350000000     0.158600000000     0.269375000000     0          
O        O      0.419000000000     0.080950000000     0.494325000000     0          
O        O      0.452050000000     0.144000000000     0.437500000000     0          
O        O      0.000000000000     0.359950000000     0.250000000000     0          
O        O      0.440350000000     0.281750000000     0.269375000000     0          
O        O      0.140050000000     0.000000000000     0.375000000000     0          
O        O      0.158600000000     0.440350000000     0.394375000000     0          
O        O      0.140050000000     0.140050000000     0.250000000000     0          
O        O      0.218250000000     0.158600000000     0.269375000000     0          
O        O      0.000000000000     0.140050000000     0.375000000000     0          
O        O      0.059650000000     0.218250000000     0.394375000000     0          
O        O      0.359950000000     0.000000000000     0.250000000000     0          
O        O      0.341400000000     0.059650000000     0.269375000000     0          
O        O      0.359950000000     0.359950000000     0.375000000000     0          
O        O      0.281750000000     0.341400000000     0.394375000000     0          
O        O      0.218250000000     0.059650000000     0.355625000000     0          
O        O      0.158600000000     0.218250000000     0.480625000000     0          
O        O      0.440350000000     0.158600000000     0.355625000000     0          
O        O      0.281750000000     0.440350000000     0.480625000000     0          
O        O      0.341400000000     0.281750000000     0.355625000000     0          
O        O      0.059650000000     0.341400000000     0.480625000000     0          
O        O      0.000000000000     0.140050000000     0.500000000000     0          
O        O      0.059650000000     0.218250000000     0.730625000000     0          
O        O      0.081000000000     0.161950000000     0.505675000000     0          
O        O      0.047950000000     0.191950000000     0.562500000000     0          
O        O      0.263150000000     0.131550000000     0.562500000000     0          
O        O      0.286800000000     0.073650000000     0.562500000000     0          
O        O      0.359950000000     0.000000000000     0.625000000000     0          
O        O      0.341400000000     0.059650000000     0.605625000000     0          
O        O      0.419050000000     0.081000000000     0.630675000000     0          
O        O      0.356000000000     0.047950000000     0.687500000000     0          
O        O      0.131600000000     0.263150000000     0.687500000000     0          
O        O      0.213150000000     0.286800000000     0.687500000000     0          
O        O      0.359950000000     0.359950000000     0.500000000000     0          
O        O      0.281750000000     0.341400000000     0.730625000000     0          
O        O      0.338050000000     0.419050000000     0.505675000000     0          
O        O      0.308050000000     0.356000000000     0.562500000000     0          
O        O      0.368450000000     0.131600000000     0.562500000000     0          
O        O      0.426350000000     0.213150000000     0.562500000000     0          
O        O      0.000000000000     0.359950000000     0.625000000000     0          
O        O      0.440350000000     0.281750000000     0.605625000000     0          
O        O      0.419000000000     0.338050000000     0.630675000000     0          
O        O      0.452050000000     0.308050000000     0.687500000000     0          
O        O      0.236850000000     0.368450000000     0.687500000000     0          
O        O      0.213200000000     0.426350000000     0.687500000000     0          
O        O      0.140050000000     0.000000000000     0.500000000000     0          
O        O      0.158600000000     0.440350000000     0.730625000000     0          
O        O      0.080950000000     0.419000000000     0.505675000000     0          
O        O      0.144000000000     0.452050000000     0.562500000000     0          
O        O      0.368400000000     0.236850000000     0.562500000000     0          
O        O      0.286850000000     0.213200000000     0.562500000000     0          
O        O      0.140050000000     0.140050000000     0.625000000000     0          
O        O      0.218250000000     0.158600000000     0.605625000000     0          
O        O      0.161950000000     0.080950000000     0.630675000000     0          
O        O      0.191950000000     0.144000000000     0.687500000000     0          
O        O      0.131550000000     0.368400000000     0.687500000000     0          
O        O      0.073650000000     0.286850000000     0.687500000000     0          
O        O      0.281750000000     0.440350000000     0.644375000000     0          
O        O      0.338050000000     0.419000000000     0.619325000000     0          
O        O      0.308050000000     0.452050000000     0.562500000000     0          
O        O      0.341400000000     0.281750000000     0.519375000000     0          
O        O      0.419050000000     0.338050000000     0.744325000000     0          
O        O      0.356000000000     0.308050000000     0.687500000000     0          
O        O      0.059650000000     0.341400000000     0.644375000000     0          
O        O      0.081000000000     0.419050000000     0.619325000000     0          
O        O      0.047950000000     0.356000000000     0.562500000000     0          
O        O      0.218250000000     0.059650000000     0.519375000000     0          
O        O      0.161950000000     0.081000000000     0.744325000000     0          
O        O      0.191950000000     0.047950000000     0.687500000000     0          
O        O      0.158600000000     0.218250000000     0.644375000000     0          
O        O      0.080950000000     0.161950000000     0.619325000000     0          
O        O      0.144000000000     0.191950000000     0.562500000000     0          
O        O      0.440350000000     0.158600000000     0.519375000000     0          
O        O      0.419000000000     0.080950000000     0.744325000000     0          
O        O      0.452050000000     0.144000000000     0.687500000000     0          
O        O      0.000000000000     0.359950000000     0.500000000000     0          
O        O      0.440350000000     0.281750000000     0.519375000000     0          
O        O      0.140050000000     0.000000000000     0.625000000000     0          
O        O      0.158600000000     0.440350000000     0.644375000000     0          
O        O      0.140050000000     0.140050000000     0.500000000000     0          
O        O      0.218250000000     0.158600000000     0.519375000000     0          
O        O      0.000000000000     0.140050000000     0.625000000000     0          
O        O      0.059650000000     0.218250000000     0.644375000000     0          
O        O      0.359950000000     0.000000000000     0.500000000000     0          
O        O      0.341400000000     0.059650000000     0.519375000000     0          
O        O      0.359950000000     0.359950000000     0.625000000000     0          
O        O      0.281750000000     0.341400000000     0.644375000000     0          
O        O      0.218250000000     0.059650000000     0.605625000000     0          
O        O      0.158600000000     0.218250000000     0.730625000000     0          
O        O      0.440350000000     0.158600000000     0.605625000000     0          
O        O      0.281750000000     0.440350000000     0.730625000000     0          
O        O      0.341400000000     0.281750000000     0.605625000000     0          
O        O      0.059650000000     0.341400000000     0.730625000000     0          
O        O      0.000000000000     0.140050000000     0.750000000000     0          
O        O      0.059650000000     0.218250000000     0.980625000000     0          
O        O      0.081000000000     0.161950000000     0.755675000000     0          
O        O      0.047950000000     0.191950000000     0.812500000000     0          
O        O      0.263150000000     0.131550000000     0.812500000000     0          
O        O      0.286800000000     0.073650000000     0.812500000000     0          
O        O      0.359950000000     0.000000000000     0.875000000000     0          
O        O      0.341400000000     0.059650000000     0.855625000000     0          
O        O      0.419050000000     0.081000000000     0.880675000000     0          
O        O      0.356000000000     0.047950000000     0.937500000000     0          
O        O      0.131600000000     0.263150000000     0.937500000000     0          
O        O      0.213150000000     0.286800000000     0.937500000000     0          
O        O      0.359950000000     0.359950000000     0.750000000000     0          
O        O      0.281750000000     0.341400000000     0.980625000000     0          
O        O      0.338050000000     0.419050000000     0.755675000000     0          
O        O      0.308050000000     0.356000000000     0.812500000000     0          
O        O      0.368450000000     0.131600000000     0.812500000000     0          
O        O      0.426350000000     0.213150000000     0.812500000000     0          
O        O      0.000000000000     0.359950000000     0.875000000000     0          
O        O      0.440350000000     0.281750000000     0.855625000000     0          
O        O      0.419000000000     0.338050000000     0.880675000000     0          
O        O      0.452050000000     0.308050000000     0.937500000000     0          
O        O      0.236850000000     0.368450000000     0.937500000000     0          
O        O      0.213200000000     0.426350000000     0.937500000000     0          
O        O      0.140050000000     0.000000000000     0.750000000000     0          
O        O      0.158600000000     0.440350000000     0.980625000000     0          
O        O      0.080950000000     0.419000000000     0.755675000000     0          
O        O      0.144000000000     0.452050000000     0.812500000000     0          
O        O      0.368400000000     0.236850000000     0.812500000000     0          
O        O      0.286850000000     0.213200000000     0.812500000000     0          
O        O      0.140050000000     0.140050000000     0.875000000000     0          
O        O      0.218250000000     0.158600000000     0.855625000000     0          
O        O      0.161950000000     0.080950000000     0.880675000000     0          
O        O      0.191950000000     0.144000000000     0.937500000000     0          
O        O      0.131550000000     0.368400000000     0.937500000000     0          
O        O      0.073650000000     0.286850000000     0.937500000000     0          
O        O      0.281750000000     0.440350000000     0.894375000000     0          
O        O      0.338050000000     0.419000000000     0.869325000000     0          
O        O      0.308050000000     0.452050000000     0.812500000000     0          
O        O      0.341400000000     0.281750000000     0.769375000000     0          
O        O      0.419050000000     0.338050000000     0.994325000000     0          
O        O      0.356000000000     0.308050000000     0.937500000000     0          
O        O      0.059650000000     0.341400000000     0.894375000000     0          
O        O      0.081000000000     0.419050000000     0.869325000000     0          
O        O      0.047950000000     0.356000000000     0.812500000000     0          
O        O      0.218250000000     0.059650000000     0.769375000000     0          
O        O      0.161950000000     0.081000000000     0.994325000000     0          
O        O      0.191950000000     0.047950000000     0.937500000000     0          
O        O      0.158600000000     0.218250000000     0.894375000000     0          
O        O      0.080950000000     0.161950000000     0.869325000000     0          
O        O      0.144000000000     0.191950000000     0.812500000000     0          
O        O      0.440350000000     0.158600000000     0.769375000000     0          
O        O      0.419000000000     0.080950000000     0.994325000000     0          
O        O      0.452050000000     0.144000000000     0.937500000000     0          
O        O      0.000000000000     0.359950000000     0.750000000000     0          
O        O      0.440350000000     0.281750000000     0.769375000000     0          
O        O      0.140050000000     0.000000000000     0.875000000000     0          
O        O      0.158600000000     0.440350000000     0.894375000000     0          
O        O      0.140050000000     0.140050000000     0.750000000000     0          
O        O      0.218250000000     0.158600000000     0.769375000000     0          
O        O      0.000000000000     0.140050000000     0.875000000000     0          
O        O      0.059650000000     0.218250000000     0.894375000000     0          
O        O      0.359950000000     0.000000000000     0.750000000000     0          
O        O      0.341400000000     0.059650000000     0.769375000000     0          
O        O      0.359950000000     0.359950000000     0.875000000000     0          
O        O      0.281750000000     0.341400000000     0.894375000000     0          
O        O      0.218250000000     0.059650000000     0.855625000000     0          
O        O      0.158600000000     0.218250000000     0.980625000000     0          
O        O      0.440350000000     0.158600000000     0.855625000000     0          
O        O      0.281750000000     0.440350000000     0.980625000000     0          
O        O      0.341400000000     0.281750000000     0.855625000000     0          
O        O      0.059650000000     0.341400000000     0.980625000000     0          
O        O      0.000000000000     0.640050000000     0.000000000000     0          
O        O      0.059650000000     0.718250000000     0.230625000000     0          
O        O      0.081000000000     0.661950000000     0.005675000000     0          
O        O      0.047950000000     0.691950000000     0.062500000000     0          
O        O      0.263150000000     0.631550000000     0.062500000000     0          
O        O      0.286800000000     0.573650000000     0.062500000000     0          
O        O      0.359950000000     0.500000000000     0.125000000000     0          
O        O      0.341400000000     0.559650000000     0.105625000000     0          
O        O      0.419050000000     0.581000000000     0.130675000000     0          
O        O      0.356000000000     0.547950000000     0.187500000000     0          
O        O      0.131600000000     0.763150000000     0.187500000000     0          
O        O      0.213150000000     0.786800000000     0.187500000000     0          
O        O      0.359950000000     0.859950000000     0.000000000000     0          
O        O      0.281750000000     0.841400000000     0.230625000000     0          
O        O      0.338050000000     0.919050000000     0.005675000000     0          
O        O      0.308050000000     0.856000000000     0.062500000000     0          
O        O      0.368450000000     0.631600000000     0.062500000000     0          
O        O      0.426350000000     0.713150000000     0.062500000000     0          
O        O      0.000000000000     0.859950000000     0.125000000000     0          
O        O      0.440350000000     0.781750000000     0.105625000000     0          
O        O      0.419000000000     0.838050000000     0.130675000000     0          
O        O      0.452050000000     0.808050000000     0.187500000000     0          
O        O      0.236850000000     0.868450000000     0.187500000000     0          
O        O      0.213200000000     0.926350000000     0.187500000000     0          
O        O      0.140050000000     0.500000000000     0.000000000000     0          
O        O      0.158600000000     0.940350000000     0.230625000000     0          
O        O      0.080950000000     0.919000000000     0.005675000000     0          
O        O      0.144000000000     0.952050000000     0.062500000000     0          
O        O      0.368400000000     0.736850000000     0.062500000000     0          
O        O      0.286850000000     0.713200000000     0.062500000000     0          
O        O      0.140050000000     0.640050000000     0.125000000000     0          
O        O      0.218250000000     0.658600000000     0.105625000000     0          
O        O      0.161950000000     0.580950000000     0.130675000000     0          
O        O      0.191950000000     0.644000000000     0.187500000000     0          
O        O      0.131550000000     0.868400000000     0.187500000000     0          
O        O      0.073650000000     0.786850000000     0.187500000000     0          
O        O      0.281750000000     0.940350000000     0.144375000000     0          
O        O      0.338050000000     0.919000000000     0.119325000000     0          
O        O      0.308050000000     0.952050000000     0.062500000000     0          
O        O      0.341400000000     0.781750000000     0.019375000000     0          
O        O      0.419050000000     0.838050000000     0.244325000000     0          
O        O      0.356000000000     0.808050000000     0.187500000000     0          
O        O      0.059650000000     0.841400000000     0.144375000000     0          
O        O      0.081000000000     0.919050000000     0.119325000000     0          
O        O      0.047950000000     0.856000000000     0.062500000000     0          
O        O      0.218250000000     0.559650000000     0.019375000000     0          
O        O      0.161950000000     0.581000000000     0.244325000000     0          
O        O      0.191950000000     0.547950000000     0.187500000000     0          
O        O      0.158600000000     0.718250000000     0.144375000000     0          
O        O      0.080950000000     0.661950000000     0.119325000000     0          
O        O      0.144000000000     0.691950000000     0.062500000000     0          
O        O      0.440350000000     0.658600000000     0.019375000000     0          
O        O      0.419000000000     0.580950000000     0.244325000000     0          
O        O      0.452050000000     0.644000000000     0.187500000000     0          
O        O      0.000000000000     0.859950000000     0.000000000000     0          
O        O      0.440350000000     0.781750000000     0.019375000000     0          
O        O      0.140050000000     0.500000000000     0.125000000000     0          
O        O      0.158600000000     0.940350000000     0.144375000000     0          
O        O      0.140050000000     0.640050000000     0.000000000000     0          
O        O      0.218250000000     0.658600000000     0.019375000000     0          
O        O      0.000000000000     0.640050000000     0.125000000000     0          
O        O      0.059650000000     0.718250000000     0.144375000000     0          
O        O      0.359950000000     0.500000000000     0.000000000000     0          
O        O      0.341400000000     0.559650000000     0.019375000000     0          
O        O      0.359950000000     0.859950000000     0.125000000000     0          
O        O      0.281750000000     0.841400000000     0.144375000000     0          
O        O      0.218250000000     0.559650000000     0.105625000000     0          
O        O      0.158600000000     0.718250000000     0.230625000000     0          
O        O      0.440350000000     0.658600000000     0.105625000000     0          
O        O      0.281750000000     0.940350000000     0.230625000000     0          
O        O      0.341400000000     0.781750000000     0.105625000000     0          
O        O      0.059650000000     0.841400000000     0.230625000000     0          
O        O      0.000000000000     0.640050000000     0.250000000000     0          
O        O      0.059650000000     0.718250000000     0.480625000000     0          
O        O      0.081000000000     0.661950000000     0.255675000000     0          
O        O      0.047950000000     0.691950000000     0.312500000000     0          
O        O      0.263150000000     0.631550000000     0.312500000000     0          
O        O      0.286800000000     0.573650000000     0.312500000000     0          
O        O      0.359950000000     0.500000000000     0.375000000000     0          
O        O      0.341400000000     0.559650000000     0.355625000000     0          
O        O      0.419050000000     0.581000000000     0.380675000000     0          
O        O      0.356000000000     0.547950000000     0.437500000000     0          
O        O      0.131600000000     0.763150000000     0.437500000000     0          
O        O      0.213150000000     0.786800000000     0.437500000000     0          
O        O      0.359950000000     0.859950000000     0.250000000000     0          
O        O      0.281750000000     0.841400000000     0.480625000000     0          
O        O      0.338050000000     0.919050000000     0.255675000000     0          
O        O      0.308050000000     0.856000000000     0.312500000000     0          
O        O      0.368450000000     0.631600000000     0.312500000000     0          
O        O      0.426350000000     0.713150000000     0.312500000000     0          
O        O      0.000000000000     0.859950000000     0.375000000000     0          
O        O      0.440350000000     0.781750000000     0.355625000000     0          
O        O      0.419000000000     0.838050000000     0.380675000000     0          
O        O      0.452050000000     0.808050000000     0.437500000000     0          
O        O      0.236850000000     0.868450000000     0.437500000000     0          
O        O      0.213200000000     0.926350000000     0.437500000000     0          
O        O      0.140050000000     0.500000000000     0.250000000000     0          
O        O      0.158600000000     0.940350000000     0.480625000000     0          
O        O      0.080950000000     0.919000000000     0.255675000000     0          
O        O      0.144000000000     0.952050000000     0.312500000000     0          
O        O      0.368400000000     0.736850000000     0.312500000000     0          
O        O      0.286850000000     0.713200000000     0.312500000000     0          
O        O      0.140050000000     0.640050000000     0.375000000000     0          
O        O      0.218250000000     0.658600000000     0.355625000000     0          
O        O      0.161950000000     0.580950000000     0.380675000000     0          
O        O      0.191950000000     0.644000000000     0.437500000000     0          
O        O      0.131550000000     0.868400000000     0.437500000000     0          
O        O      0.073650000000     0.786850000000     0.437500000000     0          
O        O      0.281750000000     0.940350000000     0.394375000000     0          
O        O      0.338050000000     0.919000000000     0.369325000000     0          
O        O      0.308050000000     0.952050000000     0.312500000000     0          
O        O      0.341400000000     0.781750000000     0.269375000000     0          
O        O      0.419050000000     0.838050000000     0.494325000000     0          
O        O      0.356000000000     0.808050000000     0.437500000000     0          
O        O      0.059650000000     0.841400000000     0.394375000000     0          
O        O      0.081000000000     0.919050000000     0.369325000000     0          
O        O      0.047950000000     0.856000000000     0.312500000000     0          
O        O      0.218250000000     0.559650000000     0.269375000000     0          
O        O      0.161950000000     0.581000000000     0.494325000000     0          
O        O      0.191950000000     0.547950000000     0.437500000000     0          
O        O      0.158600000000     0.718250000000     0.394375000000     0          
O        O      0.080950000000     0.661950000000     0.369325000000     0          
O        O      0.144000000000     0.691950000000     0.312500000000     0          
O        O      0.440350000000     0.658600000000     0.269375000000     0          
O        O      0.419000000000     0.580950000000     0.494325000000     0          
O        O      0.452050000000     0.644000000000     0.437500000000     0          
O        O      0.000000000000     0.859950000000     0.250000000000     0          
O        O      0.440350000000     0.781750000000     0.269375000000     0          
O        O      0.140050000000     0.500000000000     0.375000000000     0          
O        O      0.158600000000     0.940350000000     0.394375000000     0          
O        O      0.140050000000     0.640050000000     0.250000000000     0          
O        O      0.218250000000     0.658600000000     0.269375000000     0          
O        O      0.000000000000     0.640050000000     0.375000000000     0          
O        O      0.059650000000     0.718250000000     0.394375000000     0          
O        O      0.359950000000     0.500000000000     0.250000000000     0          
O        O      0.341400000000     0.559650000000     0.269375000000     0          
O        O      0.359950000000     0.859950000000     0.375000000000     0          
O        O      0.281750000000     0.841400000000     0.394375000000     0          
O        O      0.218250000000     0.559650000000     0.355625000000     0          
O        O      0.158600000000     0.718250000000     0.480625000000     0          
O        O      0.440350000000     0.658600000000     0.355625000000     0          
O        O      0.281750000000     0.940350000000     0.480625000000     0          
O        O      0.341400000000     0.781750000000     0.355625000000     0          
O        O      0.059650000000     0.841400000000     0.480625000000     0          
O        O      0.000000000000     0.640050000000     0.500000000000     0          
O        O      0.059650000000     0.718250000000     0.730625000000     0          
O        O      0.081000000000     0.661950000000     0.505675000000     0          
O        O      0.047950000000     0.691950000000     0.562500000000     0          
O        O      0.263150000000     0.631550000000     0.562500000000     0          
O        O      0.286800000000     0.573650000000     0.562500000000     0          
O        O      0.359950000000     0.500000000000     0.625000000000     0          
O        O      0.341400000000     0.559650000000     0.605625000000     0          
O        O      0.419050000000     0.581000000000     0.630675000000     0          
O        O      0.356000000000     0.547950000000     0.687500000000     0          
O        O      0.131600000000     0.763150000000     0.687500000000     0          
O        O      0.213150000000     0.786800000000     0.687500000000     0          
O        O      0.359950000000     0.859950000000     0.500000000000     0          
O        O      0.281750000000     0.841400000000     0.730625000000     0          
O        O      0.338050000000     0.919050000000     0.505675000000     0          
O        O      0.308050000000     0.856000000000     0.562500000000     0          
O        O      0.368450000000     0.631600000000     0.562500000000     0          
O        O      0.426350000000     0.713150000000     0.562500000000     0          
O        O      0.000000000000     0.859950000000     0.625000000000     0          
O        O      0.440350000000     0.781750000000     0.605625000000     0          
O        O      0.419000000000     0.838050000000     0.630675000000     0          
O        O      0.452050000000     0.808050000000     0.687500000000     0          
O        O      0.236850000000     0.868450000000     0.687500000000     0          
O        O      0.213200000000     0.926350000000     0.687500000000     0          
O        O      0.140050000000     0.500000000000     0.500000000000     0          
O        O      0.158600000000     0.940350000000     0.730625000000     0          
O        O      0.080950000000     0.919000000000     0.505675000000     0          
O        O      0.144000000000     0.952050000000     0.562500000000     0          
O        O      0.368400000000     0.736850000000     0.562500000000     0          
O        O      0.286850000000     0.713200000000     0.562500000000     0          
O        O      0.140050000000     0.640050000000     0.625000000000     0          
O        O      0.218250000000     0.658600000000     0.605625000000     0          
O        O      0.161950000000     0.580950000000     0.630675000000     0          
O        O      0.191950000000     0.644000000000     0.687500000000     0          
O        O      0.131550000000     0.868400000000     0.687500000000     0          
O        O      0.073650000000     0.786850000000     0.687500000000     0          
O        O      0.281750000000     0.940350000000     0.644375000000     0          
O        O      0.338050000000     0.919000000000     0.619325000000     0          
O        O      0.308050000000     0.952050000000     0.562500000000     0          
O        O      0.341400000000     0.781750000000     0.519375000000     0          
O        O      0.419050000000     0.838050000000     0.744325000000     0          
O        O      0.356000000000     0.808050000000     0.687500000000     0          
O        O      0.059650000000     0.841400000000     0.644375000000     0          
O        O      0.081000000000     0.919050000000     0.619325000000     0          
O        O      0.047950000000     0.856000000000     0.562500000000     0          
O        O      0.218250000000     0.559650000000     0.519375000000     0          
O        O      0.161950000000     0.581000000000     0.744325000000     0          
O        O      0.191950000000     0.547950000000     0.687500000000     0          
O        O      0.158600000000     0.718250000000     0.644375000000     0          
O        O      0.080950000000     0.661950000000     0.619325000000     0          
O        O      0.144000000000     0.691950000000     0.562500000000     0          
O        O      0.440350000000     0.658600000000     0.519375000000     0          
O        O      0.419000000000     0.580950000000     0.744325000000     0          
O        O      0.452050000000     0.644000000000     0.687500000000     0          
O        O      0.000000000000     0.859950000000     0.500000000000     0          
O        O      0.440350000000     0.781750000000     0.519375000000     0          
O        O      0.140050000000     0.500000000000     0.625000000000     0          
O        O      0.158600000000     0.940350000000     0.644375000000     0          
O        O      0.140050000000     0.640050000000     0.500000000000     0          
O        O      0.218250000000     0.658600000000     0.519375000000     0          
O        O      0.000000000000     0.640050000000     0.625000000000     0          
O        O      0.059650000000     0.718250000000     0.644375000000     0          
O        O      0.359950000000     0.500000000000     0.500000000000     0          
O        O      0.341400000000     0.559650000000     0.519375000000     0          
O        O      0.359950000000     0.859950000000     0.625000000000     0          
O        O      0.281750000000     0.841400000000     0.644375000000     0          
O        O      0.218250000000     0.559650000000     0.605625000000     0          
O        O      0.158600000000     0.718250000000     0.730625000000     0          
O        O      0.440350000000     0.658600000000     0.605625000000     0          
O        O      0.281750000000     0.940350000000     0.730625000000     0          
O        O      0.341400000000     0.781750000000     0.605625000000     0          
O        O      0.059650000000     0.841400000000     0.730625000000     0          
O        O      0.000000000000     0.640050000000     0.750000000000     0          
O        O      0.059650000000     0.718250000000     0.980625000000     0          
O        O      0.081000000000     0.661950000000     0.755675000000     0          
O        O      0.047950000000     0.691950000000     0.812500000000     0          
O        O      0.263150000000     0.631550000000     0.812500000000     0          
O        O      0.286800000000     0.573650000000     0.812500000000     0          
O        O      0.359950000000     0.500000000000     0.875000000000     0          
O        O      0.341400000000     0.559650000000     0.855625000000     0          
O        O      0.419050000000     0.581000000000     0.880675000000     0          
O        O      0.356000000000     0.547950000000     0.937500000000     0          
O        O      0.131600000000     0.763150000000     0.937500000000     0          
O        O      0.213150000000     0.786800000000     0.937500000000     0          
O        O      0.359950000000     0.859950000000     0.750000000000     0          
O        O      0.281750000000     0.841400000000     0.980625000000     0          
O        O      0.338050000000     0.919050000000     0.755675000000     0          
O        O      0.308050000000     0.856000000000     0.812500000000     0          
O        O      0.368450000000     0.631600000000     0.812500000000     0          
O        O      0.426350000000     0.713150000000     0.812500000000     0          
O        O      0.000000000000     0.859950000000     0.875000000000     0          
O        O      0.440350000000     0.781750000000     0.855625000000     0          
O        O      0.419000000000     0.838050000000     0.880675000000     0          
O        O      0.452050000000     0.808050000000     0.937500000000     0          
O        O      0.236850000000     0.868450000000     0.937500000000     0          
O        O      0.213200000000     0.926350000000     0.937500000000     0          
O        O      0.140050000000     0.500000000000     0.750000000000     0          
O        O      0.158600000000     0.940350000000     0.980625000000     0          
O        O      0.080950000000     0.919000000000     0.755675000000     0          
O        O      0.144000000000     0.952050000000     0.812500000000     0          
O        O      0.368400000000     0.736850000000     0.812500000000     0          
O        O      0.286850000000     0.713200000000     0.812500000000     0          
O        O      0.140050000000     0.640050000000     0.875000000000     0          
O        O      0.218250000000     0.658600000000     0.855625000000     0          
O        O      0.161950000000     0.580950000000     0.880675000000     0          
O        O      0.191950000000     0.644000000000     0.937500000000     0          
O        O      0.131550000000     0.868400000000     0.937500000000     0          
O        O      0.073650000000     0.786850000000     0.937500000000     0          
O        O      0.281750000000     0.940350000000     0.894375000000     0          
O        O      0.338050000000     0.919000000000     0.869325000000     0          
O        O      0.308050000000     0.952050000000     0.812500000000     0          
O        O      0.341400000000     0.781750000000     0.769375000000     0          
O        O      0.419050000000     0.838050000000     0.994325000000     0          
O        O      0.356000000000     0.808050000000     0.937500000000     0          
O        O      0.059650000000     0.841400000000     0.894375000000     0          
O        O      0.081000000000     0.919050000000     0.869325000000     0          
O        O      0.047950000000     0.856000000000     0.812500000000     0          
O        O      0.218250000000     0.559650000000     0.769375000000     0          
O        O      0.161950000000     0.581000000000     0.994325000000     0          
O        O      0.191950000000     0.547950000000     0.937500000000     0          
O        O      0.158600000000     0.718250000000     0.894375000000     0          
O        O      0.080950000000     0.661950000000     0.869325000000     0          
O        O      0.144000000000     0.691950000000     0.812500000000     0          
O        O      0.440350000000     0.658600000000     0.769375000000     0          
O        O      0.419000000000     0.580950000000     0.994325000000     0          
O        O      0.452050000000     0.644000000000     0.937500000000     0          
O        O      0.000000000000     0.859950000000     0.750000000000     0          
O        O      0.440350000000     0.781750000000     0.769375000000     0          
O        O      0.140050000000     0.500000000000     0.875000000000     0          
O        O      0.158600000000     0.940350000000     0.894375000000     0          
O        O      0.140050000000     0.640050000000     0.750000000000     0          
O        O      0.218250000000     0.658600000000     0.769375000000     0          
O        O      0.000000000000     0.640050000000     0.875000000000     0          
O        O      0.059650000000     0.718250000000     0.894375000000     0          
O        O      0.359950000000     0.500000000000     0.750000000000     0          
O        O      0.341400000000     0.559650000000     0.769375000000     0          
O        O      0.359950000000     0.859950000000     0.875000000000     0          
O        O      0.281750000000     0.841400000000     0.894375000000     0          
O        O      0.218250000000     0.559650000000     0.855625000000     0          
O        O      0.158600000000     0.718250000000     0.980625000000     0          
O        O      0.440350000000     0.658600000000     0.855625000000     0          
O        O      0.281750000000     0.940350000000     0.980625000000     0          
O        O      0.341400000000     0.781750000000     0.855625000000     0          
O        O      0.059650000000     0.841400000000     0.980625000000     0          
O        O      0.500000000000     0.140050000000     0.000000000000     0          
O        O      0.559650000000     0.218250000000     0.230625000000     0          
O        O      0.581000000000     0.161950000000     0.005675000000     0          
O        O      0.547950000000     0.191950000000     0.062500000000     0          
O        O      0.763150000000     0.131550000000     0.062500000000     0          
O        O      0.786800000000     0.073650000000     0.062500000000     0          
O        O      0.859950000000     0.000000000000     0.125000000000     0          
O        O      0.841400000000     0.059650000000     0.105625000000     0          
O        O      0.919050000000     0.081000000000     0.130675000000     0          
O        O      0.856000000000     0.047950000000     0.187500000000     0          
O        O      0.631600000000     0.263150000000     0.187500000000     0          
O        O      0.713150000000     0.286800000000     0.187500000000     0          
O        O      0.859950000000     0.359950000000     0.000000000000     0          
O        O      0.781750000000     0.341400000000     0.230625000000     0          
O        O      0.838050000000     0.419050000000     0.005675000000     0          
O        O      0.808050000000     0.356000000000     0.062500000000     0          
O        O      0.868450000000     0.131600000000     0.062500000000     0          
O        O      0.926350000000     0.213150000000     0.062500000000     0          
O        O      0.500000000000     0.359950000000     0.125000000000     0          
O        O      0.940350000000     0.281750000000     0.105625000000     0          
O        O      0.919000000000     0.338050000000     0.130675000000     0          
O        O      0.952050000000     0.308050000000     0.187500000000     0          
O        O      0.736850000000     0.368450000000     0.187500000000     0          
O        O      0.713200000000     0.426350000000     0.187500000000     0          
O        O      0.640050000000     0.000000000000     0.000000000000     0          
O        O      0.658600000000     0.440350000000     0.230625000000     0          
O        O      0.580950000000     0.419000000000     0.005675000000     0          
O        O      0.644000000000     0.452050000000     0.062500000000     0          
O        O      0.868400000000     0.236850000000     0.062500000000     0          
O        O      0.786850000000     0.213200000000     0.062500000000     0          
O        O      0.640050000000     0.140050000000     0.125000000000     0          
O        O      0.718250000000     0.158600000000     0.105625000000     0          
O        O      0.661950000000     0.080950000000     0.130675000000     0          
O        O      0.691950000000     0.144000000000     0.187500000000     0          
O        O      0.631550000000     0.368400000000     0.187500000000     0          
O        O      0.573650000000     0.286850000000     0.187500000000     0          
O        O      0.781750000000     0.440350000000     0.144375000000     0          
O        O      0.838050000000     0.419000000000     0.119325000000     0          
O        O      0.808050000000     0.452050000000     0.062500000000     0          
O        O      0.841400000000     0.281750000000     0.019375000000     0          
O        O      0.919050000000     0.338050000000     0.244325000000     0          
O        O      0.856000000000     0.308050000000     0.187500000000     0          
O        O      0.559650000000     0.341400000000     0.144375000000     0          
O        O      0.581000000000     0.419050000000     0.119325000000     0          
O        O      0.547950000000     0.356000000000     0.062500000000     0          
O        O      0.718250000000     0.059650000000     0.019375000000     0          
O        O      0.661950000000     0.081000000000     0.244325000000     0          
O        O      0.691950000000     0.047950000000     0.187500000000     0          
O        O      0.658600000000     0.218250000000     0.144375000000     0          
O        O      0.580950000000     0.161950000000     0.119325000000     0          
O        O      0.644000000000     0.191950000000     0.062500000000     0          
O        O      0.940350000000     0.158600000000     0.019375000000     0          
O        O      0.919000000000     0.080950000000     0.244325000000     0          
O        O      0.952050000000     0.144000000000     0.187500000000     0          
O        O      0.500000000000     0.359950000000     0.000000000000     0          
O        O      0.940350000000     0.281750000000     0.019375000000     0          
O        O      0.640050000000     0.000000000000     0.125000000000     0          
O        O      0.658600000000     0.440350000000     0.144375000000     0          
O        O      0.640050000000     0.140050000000     0.000000000000     0          
O        O      0.718250000000     0.158600000000     0.019375000000     0          
O        O      0.500000000000     0.140050000000     0.125000000000     0          
O        O      0.559650000000     0.218250000000     0.144375000000     0          
O        O      0.859950000000     0.000000000000     0.000000000000     0          
O        O      0.841400000000     0.059650000000     0.019375000000     0          
O        O      0.859950000000     0.359950000000     0.125000000000     0          
O        O      0.781750000000     0.341400000000     0.144375000000     0          
O        O      0.718250000000     0.059650000000     0.105625000000     0          
O        O      0.658600000000     0.218250000000     0.230625000000     0          
O        O      0.940350000000     0.158600000000     0.105625000000     0          
O        O      0.781750000000     0.440350000000     0.230625000000     0          
O        O      0.841400000000     0.281750000000     0.105625000000     0          
O        O      0.559650000000     0.341400000000     0.230625000000     0          
O        O      0.500000000000     0.140050000000     0.250000000000     0          
O        O      0.559650000000     0.218250000000     0.480625000000     0          
O        O      0.581000000000     0.161950000000     0.255675000000     0          
O        O      0.547950000000     0.191950000000     0.312500000000     0          
O        O      0.763150000000     0.131550000000     0.312500000000     0          
O        O      0.786800000000     0.073650000000     0.312500000000     0          
O        O      0.859950000000     0.000000000000     0.375000000000     0          
O        O      0.841400000000     0.059650000000     0.355625000000     0          
O        O      0.919050000000     0.081000000000     0.380675000000     0          
O        O      0.856000000000     0.047950000000     0.437500000000     0          
O        O      0.631600000000     0.263150000000     0.437500000000     0          
O        O      0.713150000000     0.286800000000     0.437500000000     0          
O        O      0.859950000000     0.359950000000     0.250000000000     0          
O        O      0.781750000000     0.341400000000     0.480625000000     0          
O        O      0.838050000000     0.419050000000     0.255675000000     0          
O        O      0.808050000000     0.356000000000     0.312500000000     0          
O        O      0.868450000000     0.131600000000     0.312500000000     0          
O        O      0.926350000000     0.213150000000     0.312500000000     0          
O        O      0.500000000000     0.359950000000     0.375000000000     0          
O        O      0.940350000000     0.281750000000     0.355625000000     0          
O        O      0.919000000000     0.338050000000     0.380675000000     0          
O        O      0.952050000000     0.308050000000     0.437500000000     0          
O        O      0.736850000000     0.368450000000     0.437500000000     0          
O        O      0.713200000000     0.426350000000     0.437500000000     0          
O        O      0.640050000000     0.000000000000     0.250000000000     0          
O        O      0.658600000000     0.440350000000     0.480625000000     0          
O        O      0.580950000000     0.419000000000     0.255675000000     0          
O        O      0.644000000000     0.452050000000     0.312500000000     0          
O        O      0.868400000000     0.236850000000     0.312500000000     0          
O        O      0.786850000000     0.213200000000     0.312500000000     0          
O        O      0.640050000000     0.140050000000     0.375000000000     0          
O        O      0.718250000000     0.158600000000     0.355625000000     0          
O        O      0.661950000000     0.080950000000     0.380675000000     0          
O        O      0.691950000000     0.144000000000     0.437500000000     0          
O        O      0.631550000000     0.368400000000     0.437500000000     0          
O        O      0.573650000000     0.286850000000     0.437500000000     0          
O        O      0.781750000000     0.440350000000     0.394375000000     0          
O        O      0.838050000000     0.419000000000     0.369325000000     0          
O        O      0.808050000000     0.452050000000     0.312500000000     0          
O        O      0.841400000000     0.281750000000     0.269375000000     0          
O        O      0.919050000000     0.338050000000     0.494325000000     0          
O        O      0.856000000000     0.308050000000     0.437500000000     0          
O        O      0.559650000000     0.341400000000     0.394375000000     0          
O        O      0.581000000000     0.419050000000     0.369325000000     0          
O        O      0.547950000000     0.356000000000     0.312500000000     0          
O        O      0.718250000000     0.059650000000     0.269375000000     0          
O        O      0.661950000000     0.081000000000     0.494325000000     0          
O        O      0.691950000000     0.047950000000     0.437500000000     0          
O        O      0.658600000000     0.218250000000     0.394375000000     0          
O        O      0.580950000000     0.161950000000     0.369325000000     0          
O        O      0.644000000000     0.191950000000     0.312500000000     0          
O        O      0.940350000000     0.158600000000     0.269375000000     0          
O        O      0.919000000000     0.080950000000     0.494325000000     0          
O        O      0.952050000000     0.144000000000     0.437500000000     0          
O        O      0.500000000000     0.359950000000     0.250000000000     0          
O        O      0.940350000000     0.281750000000     0.269375000000     0          
O        O      0.640050000000     0.000000000000     0.375000000000     0          
O        O      0.658600000000     0.440350000000     0.394375000000     0          
O        O      0.640050000000     0.140050000000     0.250000000000     0          
O        O      0.718250000000     0.158600000000     0.269375000000     0          
O        O      0.500000000000     0.140050000000     0.375000000000     0          
O        O      0.559650000000     0.218250000000     0.394375000000     0          
O        O      0.859950000000     0.000000000000     0.250000000000     0          
O        O      0.841400000000     0.059650000000     0.269375000000     0          
O        O      0.859950000000     0.359950000000     0.375000000000     0          
O        O      0.781750000000     0.341400000000     0.394375000000     0          
O        O      0.718250000000     0.059650000000     0.355625000000     0          
O        O      0.658600000000     0.218250000000     0.480625000000     0          
O        O      0.940350000000     0.158600000000     0.355625000000     0          
O        O      0.781750000000     0.440350000000     0.480625000000     0          
O        O      0.841400000000     0.281750000000     0.355625000000     0          
O        O      0.559650000000     0.341400000000     0.480625000000     0          
O        O      0.500000000000     0.140050000000     0.500000000000     0          
O        O      0.559650000000     0.218250000000     0.730625000000     0          
O        O      0.581000000000     0.161950000000     0.505675000000     0          
O        O      0.547950000000     0.191950000000     0.562500000000     0          
O        O      0.763150000000     0.131550000000     0.562500000000     0          
O        O      0.786800000000     0.073650000000     0.562500000000     0          
O        O      0.859950000000     0.000000000000     0.625000000000     0          
O        O      0.841400000000     0.059650000000     0.605625000000     0          
O        O      0.919050000000     0.081000000000     0.630675000000     0          
O        O      0.856000000000     0.047950000000     0.687500000000     0          
O        O      0.631600000000     0.263150000000     0.687500000000     0          
O        O      0.713150000000     0.286800000000     0.687500000000     0          
O        O      0.859950000000     0.359950000000     0.500000000000     0          
O        O      0.781750000000     0.341400000000     0.730625000000     0          
O        O      0.838050000000     0.419050000000     0.505675000000     0          
O        O      0.808050000000     0.356000000000     0.562500000000     0          
O        O      0.868450000000     0.131600000000     0.562500000000     0          
O        O      0.926350000000     0.213150000000     0.562500000000     0          
O        O      0.500000000000     0.359950000000     0.625000000000     0          
O        O      0.940350000000     0.281750000000     0.605625000000     0          
O        O      0.919000000000     0.338050000000     0.630675000000     0          
O        O      0.952050000000     0.308050000000     0.687500000000     0          
O        O      0.736850000000     0.368450000000     0.687500000000     0          
O        O      0.713200000000     0.426350000000     0.687500000000     0          
O        O      0.640050000000     0.000000000000     0.500000000000     0          
O        O      0.658600000000     0.440350000000     0.730625000000     0          
O        O      0.580950000000     0.419000000000     0.505675000000     0          
O        O      0.644000000000     0.452050000000     0.562500000000     0          
O        O      0.868400000000     0.236850000000     0.562500000000     0          
O        O      0.786850000000     0.213200000000     0.562500000000     0          
O        O      0.640050000000     0.140050000000     0.625000000000     0          
O        O      0.718250000000     0.158600000000     0.605625000000     0          
O        O      0.661950000000     0.080950000000     0.630675000000     0          
O        O      0.691950000000     0.144000000000     0.687500000000     0          
O        O      0.631550000000     0.368400000000     0.687500000000     0          
O        O      0.573650000000     0.286850000000     0.687500000000     0          
O        O      0.781750000000     0.440350000000     0.644375000000     0          
O        O      0.838050000000     0.419000000000     0.619325000000     0          
O        O      0.808050000000     0.452050000000     0.562500000000     0          
O        O      0.841400000000     0.281750000000     0.519375000000     0          
O        O      0.919050000000     0.338050000000     0.744325000000     0          
O        O      0.856000000000     0.308050000000     0.687500000000     0          
O        O      0.559650000000     0.341400000000     0.644375000000     0          
O        O      0.581000000000     0.419050000000     0.619325000000     0          
O        O      0.547950000000     0.356000000000     0.562500000000     0          
O        O      0.718250000000     0.059650000000     0.519375000000     0          
O        O      0.661950000000     0.081000000000     0.744325000000     0          
O        O      0.691950000000     0.047950000000     0.687500000000     0          
O        O      0.658600000000     0.218250000000     0.644375000000     0          
O        O      0.580950000000     0.161950000000     0.619325000000     0          
O        O      0.644000000000     0.191950000000     0.562500000000     0          
O        O      0.940350000000     0.158600000000     0.519375000000     0          
O        O      0.919000000000     0.080950000000     0.744325000000     0          
O        O      0.952050000000     0.144000000000     0.687500000000     0          
O        O      0.500000000000     0.359950000000     0.500000000000     0          
O        O      0.940350000000     0.281750000000     0.519375000000     0          
O        O      0.640050000000     0.000000000000     0.625000000000     0          
O        O      0.658600000000     0.440350000000     0.644375000000     0          
O        O      0.640050000000     0.140050000000     0.500000000000     0          
O        O      0.718250000000     0.158600000000     0.519375000000     0          
O        O      0.500000000000     0.140050000000     0.625000000000     0          
O        O      0.559650000000     0.218250000000     0.644375000000     0          
O        O      0.859950000000     0.000000000000     0.500000000000     0          
O        O      0.841400000000     0.059650000000     0.519375000000     0          
O        O      0.859950000000     0.359950000000     0.625000000000     0          
O        O      0.781750000000     0.341400000000     0.644375000000     0          
O        O      0.718250000000     0.059650000000     0.605625000000     0          
O        O      0.658600000000     0.218250000000     0.730625000000     0          
O        O      0.940350000000     0.158600000000     0.605625000000     0          
O        O      0.781750000000     0.440350000000     0.730625000000     0          
O        O      0.841400000000     0.281750000000     0.605625000000     0          
O        O      0.559650000000     0.341400000000     0.730625000000     0          
O        O      0.500000000000     0.140050000000     0.750000000000     0          
O        O      0.559650000000     0.218250000000     0.980625000000     0          
O        O      0.581000000000     0.161950000000     0.755675000000     0          
O        O      0.547950000000     0.191950000000     0.812500000000     0          
O        O      0.763150000000     0.131550000000     0.812500000000     0          
O        O      0.786800000000     0.073650000000     0.812500000000     0          
O        O      0.859950000000     0.000000000000     0.875000000000     0          
O        O      0.841400000000     0.059650000000     0.855625000000     0          
O        O      0.919050000000     0.081000000000     0.880675000000     0          
O        O      0.856000000000     0.047950000000     0.937500000000     0          
O        O      0.631600000000     0.263150000000     0.937500000000     0          
O        O      0.713150000000     0.286800000000     0.937500000000     0          
O        O      0.859950000000     0.359950000000     0.750000000000     0          
O        O      0.781750000000     0.341400000000     0.980625000000     0          
O        O      0.838050000000     0.419050000000     0.755675000000     0          
O        O      0.808050000000     0.356000000000     0.812500000000     0          
O        O      0.868450000000     0.131600000000     0.812500000000     0          
O        O      0.926350000000     0.213150000000     0.812500000000     0          
O        O      0.500000000000     0.359950000000     0.875000000000     0          
O        O      0.940350000000     0.281750000000     0.855625000000     0          
O        O      0.919000000000     0.338050000000     0.880675000000     0          
O        O      0.952050000000     0.308050000000     0.937500000000     0          
O        O      0.736850000000     0.368450000000     0.937500000000     0          
O        O      0.713200000000     0.426350000000     0.937500000000     0          
O        O      0.640050000000     0.000000000000     0.750000000000     0          
O        O      0.658600000000     0.440350000000     0.980625000000     0          
O        O      0.580950000000     0.419000000000     0.755675000000     0          
O        O      0.644000000000     0.452050000000     0.812500000000     0          
O        O      0.868400000000     0.236850000000     0.812500000000     0          
O        O      0.786850000000     0.213200000000     0.812500000000     0          
O        O      0.640050000000     0.140050000000     0.875000000000     0          
O        O      0.718250000000     0.158600000000     0.855625000000     0          
O        O      0.661950000000     0.080950000000     0.880675000000     0          
O        O      0.691950000000     0.144000000000     0.937500000000     0          
O        O      0.631550000000     0.368400000000     0.937500000000     0          
O        O      0.573650000000     0.286850000000     0.937500000000     0          
O        O      0.781750000000     0.440350000000     0.894375000000     0          
O        O      0.838050000000     0.419000000000     0.869325000000     0          
O        O      0.808050000000     0.452050000000     0.812500000000     0          
O        O      0.841400000000     0.281750000000     0.769375000000     0          
O        O      0.919050000000     0.338050000000     0.994325000000     0          
O        O      0.856000000000     0.308050000000     0.937500000000     0          
O        O      0.559650000000     0.341400000000     0.894375000000     0          
O        O      0.581000000000     0.419050000000     0.869325000000     0          
O        O      0.547950000000     0.356000000000     0.812500000000     0          
O        O      0.718250000000     0.059650000000     0.769375000000     0          
O        O      0.661950000000     0.081000000000     0.994325000000     0          
O        O      0.691950000000     0.047950000000     0.937500000000     0          
O        O      0.658600000000     0.218250000000     0.894375000000     0          
O        O      0.580950000000     0.161950000000     0.869325000000     0          
O        O      0.644000000000     0.191950000000     0.812500000000     0          
O        O      0.940350000000     0.158600000000     0.769375000000     0          
O        O      0.919000000000     0.080950000000     0.994325000000     0          
O        O      0.952050000000     0.144000000000     0.937500000000     0          
O        O      0.500000000000     0.359950000000     0.750000000000     0          
O        O      0.940350000000     0.281750000000     0.769375000000     0          
O        O      0.640050000000     0.000000000000     0.875000000000     0          
O        O      0.658600000000     0.440350000000     0.894375000000     0          
O        O      0.640050000000     0.140050000000     0.750000000000     0          
O        O      0.718250000000     0.158600000000     0.769375000000     0          
O        O      0.500000000000     0.140050000000     0.875000000000     0          
O        O      0.559650000000     0.218250000000     0.894375000000     0          
O        O      0.859950000000     0.000000000000     0.750000000000     0          
O        O      0.841400000000     0.059650000000     0.769375000000     0          
O        O      0.859950000000     0.359950000000     0.875000000000     0          
O        O      0.781750000000     0.341400000000     0.894375000000     0          
O        O      0.718250000000     0.059650000000     0.855625000000     0          
O        O      0.658600000000     0.218250000000     0.980625000000     0          
O        O      0.940350000000     0.158600000000     0.855625000000     0          
O        O      0.781750000000     0.440350000000     0.980625000000     0          
O        O      0.841400000000     0.281750000000     0.855625000000     0          
O        O      0.559650000000     0.341400000000     0.980625000000     0          
O        O      0.500000000000     0.640050000000     0.000000000000     0          
O        O      0.559650000000     0.718250000000     0.230625000000     0          
O        O      0.581000000000     0.661950000000     0.005675000000     0          
O        O      0.547950000000     0.691950000000     0.062500000000     0          
O        O      0.763150000000     0.631550000000     0.062500000000     0          
O        O      0.786800000000     0.573650000000     0.062500000000     0          
O        O      0.859950000000     0.500000000000     0.125000000000     0          
O        O      0.841400000000     0.559650000000     0.105625000000     0          
O        O      0.919050000000     0.581000000000     0.130675000000     0          
O        O      0.856000000000     0.547950000000     0.187500000000     0          
O        O      0.631600000000     0.763150000000     0.187500000000     0          
O        O      0.713150000000     0.786800000000     0.187500000000     0          
O        O      0.859950000000     0.859950000000     0.000000000000     0          
O        O      0.781750000000     0.841400000000     0.230625000000     0          
O        O      0.838050000000     0.919050000000     0.005675000000     0          
O        O      0.808050000000     0.856000000000     0.062500000000     0          
O        O      0.868450000000     0.631600000000     0.062500000000     0          
O        O      0.926350000000     0.713150000000     0.062500000000     0          
O        O      0.500000000000     0.859950000000     0.125000000000     0          
O        O      0.940350000000     0.781750000000     0.105625000000     0          
O        O      0.919000000000     0.838050000000     0.130675000000     0          
O        O      0.952050000000     0.808050000000     0.187500000000     0          
O        O      0.736850000000     0.868450000000     0.187500000000     0          
O        O      0.713200000000     0.926350000000     0.187500000000     0          
O        O      0.640050000000     0.500000000000     0.000000000000     0          
O        O      0.658600000000     0.940350000000     0.230625000000     0          
O        O      0.580950000000     0.919000000000     0.005675000000     0          
O        O      0.644000000000     0.952050000000     0.062500000000     0          
O        O      0.868400000000     0.736850000000     0.062500000000     0          
O        O      0.786850000000     0.713200000000     0.062500000000     0          
O        O      0.640050000000     0.640050000000     0.125000000000     0          
O        O      0.718250000000     0.658600000000     0.105625000000     0          
O        O      0.661950000000     0.580950000000     0.130675000000     0          
O        O      0.691950000000     0.644000000000     0.187500000000     0          
O        O      0.631550000000     0.868400000000     0.187500000000     0          
O        O      0.573650000000     0.786850000000     0.187500000000     0          
O        O      0.781750000000     0.940350000000     0.144375000000     0          
O        O      0.838050000000     0.919000000000     0.119325000000     0          
O        O      0.808050000000     0.952050000000     0.062500000000     0          
O        O      0.841400000000     0.781750000000     0.019375000000     0          
O        O      0.919050000000     0.838050000000     0.244325000000     0          
O        O      0.856000000000     0.808050000000     0.187500000000     0          
O        O      0.559650000000     0.841400000000     0.144375000000     0          
O        O      0.581000000000     0.919050000000     0.119325000000     0          
O        O      0.547950000000     0.856000000000     0.062500000000     0          
O        O      0.718250000000     0.559650000000     0.019375000000     0          
O        O      0.661950000000     0.581000000000     0.244325000000     0          
O        O      0.691950000000     0.547950000000     0.187500000000     0          
O        O      0.658600000000     0.718250000000     0.144375000000     0          
O        O      0.580950000000     0.661950000000     0.119325000000     0          
O        O      0.644000000000     0.691950000000     0.062500000000     0          
O        O      0.940350000000     0.658600000000     0.019375000000     0          
O        O      0.919000000000     0.580950000000     0.244325000000     0          
O        O      0.952050000000     0.644000000000     0.187500000000     0          
O        O      0.500000000000     0.859950000000     0.000000000000     0          
O        O      0.940350000000     0.781750000000     0.019375000000     0          
O        O      0.640050000000     0.500000000000     0.125000000000     0          
O        O      0.658600000000     0.940350000000     0.144375000000     0          
O        O      0.640050000000     0.640050000000     0.000000000000     0          
O        O      0.718250000000     0.658600000000     0.019375000000     0          
O        O      0.500000000000     0.640050000000     0.125000000000     0          
O        O      0.559650000000     0.718250000000     0.144375000000     0          
O        O      0.859950000000     0.500000000000     0.000000000000     0          
O        O      0.841400000000     0.559650000000     0.019375000000     0          
O        O      0.859950000000     0.859950000000     0.125000000000     0          
O        O      0.781750000000     0.841400000000     0.144375000000     0          
O        O      0.718250000000     0.559650000000     0.105625000000     0          
O        O      0.658600000000     0.718250000000     0.230625000000     0          
O        O      0.940350000000     0.658600000000     0.105625000000     0          
O        O      0.781750000000     0.940350000000     0.230625000000     0          
O        O      0.841400000000     0.781750000000     0.105625000000     0          
O        O      0.559650000000     0.841400000000     0.230625000000     0          
O        O      0.500000000000     0.640050000000     0.250000000000     0          
O        O      0.559650000000     0.718250000000     0.480625000000     0          
O        O      0.581000000000     0.661950000000     0.255675000000     0          
O        O      0.547950000000     0.691950000000     0.312500000000     0          
O        O      0.763150000000     0.631550000000     0.312500000000     0          
O        O      0.786800000000     0.573650000000     0.312500000000     0          
O        O      0.859950000000     0.500000000000     0.375000000000     0          
O        O      0.841400000000     0.559650000000     0.355625000000     0          
O        O      0.919050000000     0.581000000000     0.380675000000     0          
O        O      0.856000000000     0.547950000000     0.437500000000     0          
O        O      0.631600000000     0.763150000000     0.437500000000     0          
O        O      0.713150000000     0.786800000000     0.437500000000     0          
O        O      0.859950000000     0.859950000000     0.250000000000     0          
O        O      0.781750000000     0.841400000000     0.480625000000     0          
O        O      0.838050000000     0.919050000000     0.255675000000     0          
O        O      0.808050000000     0.856000000000     0.312500000000     0          
O        O      0.868450000000     0.631600000000     0.312500000000     0          
O        O      0.926350000000     0.713150000000     0.312500000000     0          
O        O      0.500000000000     0.859950000000     0.375000000000     0          
O        O      0.940350000000     0.781750000000     0.355625000000     0          
O        O      0.919000000000     0.838050000000     0.380675000000     0          
O        O      0.952050000000     0.808050000000     0.437500000000     0          
O        O      0.736850000000     0.868450000000     0.437500000000     0          
O        O      0.713200000000     0.926350000000     0.437500000000     0          
O        O      0.640050000000     0.500000000000     0.250000000000     0          
O        O      0.658600000000     0.940350000000     0.480625000000     0          
O        O      0.580950000000     0.919000000000     0.255675000000     0          
O        O      0.644000000000     0.952050000000     0.312500000000     0          
O        O      0.868400000000     0.736850000000     0.312500000000     0          
O        O      0.786850000000     0.713200000000     0.312500000000     0          
O        O      0.640050000000     0.640050000000     0.375000000000     0          
O        O      0.718250000000     0.658600000000     0.355625000000     0          
O        O      0.661950000000     0.580950000000     0.380675000000     0          
O        O      0.691950000000     0.644000000000     0.437500000000     0          
O        O      0.631550000000     0.868400000000     0.437500000000     0          
O        O      0.573650000000     0.786850000000     0.437500000000     0          
O        O      0.781750000000     0.940350000000     0.394375000000     0          
O        O      0.838050000000     0.919000000000     0.369325000000     0          
O        O      0.808050000000     0.952050000000     0.312500000000     0          
O        O      0.841400000000     0.781750000000     0.269375000000     0          
O        O      0.919050000000     0.838050000000     0.494325000000     0          
O        O      0.856000000000     0.808050000000     0.437500000000     0          
O        O      0.559650000000     0.841400000000     0.394375000000     0          
O        O      0.581000000000     0.919050000000     0.369325000000     0          
O        O      0.547950000000     0.856000000000     0.312500000000     0          
O        O      0.718250000000     0.559650000000     0.269375000000     0          
O        O      0.661950000000     0.581000000000     0.494325000000     0          
O        O      0.691950000000     0.547950000000     0.437500000000     0          
O        O      0.658600000000     0.718250000000     0.394375000000     0          
O        O      0.580950000000     0.661950000000     0.369325000000     0          
O        O      0.644000000000     0.691950000000     0.312500000000     0          
O        O      0.940350000000     0.658600000000     0.269375000000     0          
O        O      0.919000000000     0.580950000000     0.494325000000     0          
O        O      0.952050000000     0.644000000000     0.437500000000     0          
O        O      0.500000000000     0.859950000000     0.250000000000     0          
O        O      0.940350000000     0.781750000000     0.269375000000     0          
O        O      0.640050000000     0.500000000000     0.375000000000     0          
O        O      0.658600000000     0.940350000000     0.394375000000     0          
O        O      0.640050000000     0.640050000000     0.250000000000     0          
O        O      0.718250000000     0.658600000000     0.269375000000     0          
O        O      0.500000000000     0.640050000000     0.375000000000     0          
O        O      0.559650000000     0.718250000000     0.394375000000     0          
O        O      0.859950000000     0.500000000000     0.250000000000     0          
O        O      0.841400000000     0.559650000000     0.269375000000     0          
O        O      0.859950000000     0.859950000000     0.375000000000     0          
O        O      0.781750000000     0.841400000000     0.394375000000     0          
O        O      0.718250000000     0.559650000000     0.355625000000     0          
O        O      0.658600000000     0.718250000000     0.480625000000     0          
O        O      0.940350000000     0.658600000000     0.355625000000     0          
O        O      0.781750000000     0.940350000000     0.480625000000     0          
O        O      0.841400000000     0.781750000000     0.355625000000     0          
O        O      0.559650000000     0.841400000000     0.480625000000     0          
O        O      0.500000000000     0.640050000000     0.500000000000     0          
O        O      0.559650000000     0.718250000000     0.730625000000     0          
O        O      0.581000000000     0.661950000000     0.505675000000     0          
O        O      0.547950000000     0.691950000000     0.562500000000     0          
O        O      0.763150000000     0.631550000000     0.562500000000     0          
O        O      0.786800000000     0.573650000000     0.562500000000     0          
O        O      0.859950000000     0.500000000000     0.625000000000     0          
O        O      0.841400000000     0.559650000000     0.605625000000     0          
O        O      0.919050000000     0.581000000000     0.630675000000     0          
O        O      0.856000000000     0.547950000000     0.687500000000     0          
O        O      0.631600000000     0.763150000000     0.687500000000     0          
O        O      0.713150000000     0.786800000000     0.687500000000     0          
O        O      0.859950000000     0.859950000000     0.500000000000     0          
O        O      0.781750000000     0.841400000000     0.730625000000     0          
O        O      0.838050000000     0.919050000000     0.505675000000     0          
O        O      0.808050000000     0.856000000000     0.562500000000     0          
O        O      0.868450000000     0.631600000000     0.562500000000     0          
O        O      0.926350000000     0.713150000000     0.562500000000     0          
O        O      0.500000000000     0.859950000000     0.625000000000     0          
O        O      0.940350000000     0.781750000000     0.605625000000     0          
O        O      0.919000000000     0.838050000000     0.630675000000     0          
O        O      0.952050000000     0.808050000000     0.687500000000     0          
O        O      0.736850000000     0.868450000000     0.687500000000     0          
O        O      0.713200000000     0.926350000000     0.687500000000     0          
O        O      0.640050000000     0.500000000000     0.500000000000     0          
O        O      0.658600000000     0.940350000000     0.730625000000     0          
O        O      0.580950000000     0.919000000000     0.505675000000     0          
O        O      0.644000000000     0.952050000000     0.562500000000     0          
O        O      0.868400000000     0.736850000000     0.562500000000     0          
O        O      0.786850000000     0.713200000000     0.562500000000     0          
O        O      0.640050000000     0.640050000000     0.625000000000     0          
O        O      0.718250000000     0.658600000000     0.605625000000     0          
O        O      0.661950000000     0.580950000000     0.630675000000     0          
O        O      0.691950000000     0.644000000000     0.687500000000     0          
O        O      0.631550000000     0.868400000000     0.687500000000     0          
O        O      0.573650000000     0.786850000000     0.687500000000     0          
O        O      0.781750000000     0.940350000000     0.644375000000     0          
O        O      0.838050000000     0.919000000000     0.619325000000     0          
O        O      0.808050000000     0.952050000000     0.562500000000     0          
O        O      0.841400000000     0.781750000000     0.519375000000     0          
O        O      0.919050000000     0.838050000000     0.744325000000     0          
O        O      0.856000000000     0.808050000000     0.687500000000     0          
O        O      0.559650000000     0.841400000000     0.644375000000     0          
O        O      0.581000000000     0.919050000000     0.619325000000     0          
O        O      0.547950000000     0.856000000000     0.562500000000     0          
O        O      0.718250000000     0.559650000000     0.519375000000     0          
O        O      0.661950000000     0.581000000000     0.744325000000     0          
O        O      0.691950000000     0.547950000000     0.687500000000     0          
O        O      0.658600000000     0.718250000000     0.644375000000     0          
O        O      0.580950000000     0.661950000000     0.619325000000     0          
O        O      0.644000000000     0.691950000000     0.562500000000     0          
O        O      0.940350000000     0.658600000000     0.519375000000     0          
O        O      0.919000000000     0.580950000000     0.744325000000     0          
O        O      0.952050000000     0.644000000000     0.687500000000     0          
O        O      0.500000000000     0.859950000000     0.500000000000     0          
O        O      0.940350000000     0.781750000000     0.519375000000     0          
O        O      0.640050000000     0.500000000000     0.625000000000     0          
O        O      0.658600000000     0.940350000000     0.644375000000     0          
O        O      0.640050000000     0.640050000000     0.500000000000     0          
O        O      0.718250000000     0.658600000000     0.519375000000     0          
O        O      0.500000000000     0.640050000000     0.625000000000     0          
O        O      0.559650000000     0.718250000000     0.644375000000     0          
O        O      0.859950000000     0.500000000000     0.500000000000     0          
O        O      0.841400000000     0.559650000000     0.519375000000     0          
O        O      0.859950000000     0.859950000000     0.625000000000     0          
O        O      0.781750000000     0.841400000000     0.644375000000     0          
O        O      0.718250000000     0.559650000000     0.605625000000     0          
O        O      0.658600000000     0.718250000000     0.730625000000     0          
O        O      0.940350000000     0.658600000000     0.605625000000     0          
O        O      0.781750000000     0.940350000000     0.730625000000     0          
O        O      0.841400000000     0.781750000000     0.605625000000     0          
O        O      0.559650000000     0.841400000000     0.730625000000     0          
O        O      0.500000000000     0.640050000000     0.750000000000     0          
O        O      0.559650000000     0.718250000000     0.980625000000     0          
O        O      0.581000000000     0.661950000000     0.755675000000     0          
O        O      0.547950000000     0.691950000000     0.812500000000     0          
O        O      0.763150000000     0.631550000000     0.812500000000     0          
O        O      0.786800000000     0.573650000000     0.812500000000     0          
O        O      0.859950000000     0.500000000000     0.875000000000     0          
O        O      0.841400000000     0.559650000000     0.855625000000     0          
O        O      0.919050000000     0.581000000000     0.880675000000     0          
O        O      0.856000000000     0.547950000000     0.937500000000     0          
O        O      0.631600000000     0.763150000000     0.937500000000     0          
O        O      0.713150000000     0.786800000000     0.937500000000     0          
O        O      0.859950000000     0.859950000000     0.750000000000     0          
O        O      0.781750000000     0.841400000000     0.980625000000     0          
O        O      0.838050000000     0.919050000000     0.755675000000     0          
O        O      0.808050000000     0.856000000000     0.812500000000     0          
O        O      0.868450000000     0.631600000000     0.812500000000     0          
O        O      0.926350000000     0.713150000000     0.812500000000     0          
O        O      0.500000000000     0.859950000000     0.875000000000     0          
O        O      0.940350000000     0.781750000000     0.855625000000     0          
O        O      0.919000000000     0.838050000000     0.880675000000     0          
O        O      0.952050000000     0.808050000000     0.937500000000     0          
O        O      0.736850000000     0.868450000000     0.937500000000     0          
O        O      0.713200000000     0.926350000000     0.937500000000     0          
O        O      0.640050000000     0.500000000000     0.750000000000     0          
O        O      0.658600000000     0.940350000000     0.980625000000     0          
O        O      0.580950000000     0.919000000000     0.755675000000     0          
O        O      0.644000000000     0.952050000000     0.812500000000     0          
O        O      0.868400000000     0.736850000000     0.812500000000     0          
O        O      0.786850000000     0.713200000000     0.812500000000     0          
O        O      0.640050000000     0.640050000000     0.875000000000     0          
O        O      0.718250000000     0.658600000000     0.855625000000     0          
O        O      0.661950000000     0.580950000000     0.880675000000     0          
O        O      0.691950000000     0.644000000000     0.937500000000     0          
O        O      0.631550000000     0.868400000000     0.937500000000     0          
O        O      0.573650000000     0.786850000000     0.937500000000     0          
O        O      0.781750000000     0.940350000000     0.894375000000     0          
O        O      0.838050000000     0.919000000000     0.869325000000     0          
O        O      0.808050000000     0.952050000000     0.812500000000     0          
O        O      0.841400000000     0.781750000000     0.769375000000     0          
O        O      0.919050000000     0.838050000000     0.994325000000     0          
O        O      0.856000000000     0.808050000000     0.937500000000     0          
O        O      0.559650000000     0.841400000000     0.894375000000     0          
O        O      0.581000000000     0.919050000000     0.869325000000     0          
O        O      0.547950000000     0.856000000000     0.812500000000     0          
O        O      0.718250000000     0.559650000000     0.769375000000     0          
O        O      0.661950000000     0.581000000000     0.994325000000     0          
O        O      0.691950000000     0.547950000000     0.937500000000     0          
O        O      0.658600000000     0.718250000000     0.894375000000     0          
O        O      0.580950000000     0.661950000000     0.869325000000     0          
O        O      0.644000000000     0.691950000000     0.812500000000     0          
O        O      0.940350000000     0.658600000000     0.769375000000     0          
O        O      0.919000000000     0.580950000000     0.994325000000     0          
O        O      0.952050000000     0.644000000000     0.937500000000     0          
O        O      0.500000000000     0.859950000000     0.750000000000     0          
O        O      0.940350000000     0.781750000000     0.769375000000     0          
O        O      0.640050000000     0.500000000000     0.875000000000     0          
O        O      0.658600000000     0.940350000000     0.894375000000     0          
O        O      0.640050000000     0.640050000000     0.750000000000     0          
O        O      0.718250000000     0.658600000000     0.769375000000     0          
O        O      0.500000000000     0.640050000000     0.875000000000     0          
O        O      0.559650000000     0.718250000000     0.894375000000     0          
O        O      0.859950000000     0.500000000000     0.750000000000     0          
O        O      0.841400000000     0.559650000000     0.769375000000     0          
O        O      0.859950000000     0.859950000000     0.875000000000     0          
O        O      0.781750000000     0.841400000000     0.894375000000     0          
O        O      0.718250000000     0.559650000000     0.855625000000     0          
O        O      0.658600000000     0.718250000000     0.980625000000     0          
O        O      0.940350000000     0.658600000000     0.855625000000     0          
O        O      0.781750000000     0.940350000000     0.980625000000     0          
O        O      0.841400000000     0.781750000000     0.855625000000     0          
O        O      0.559650000000     0.841400000000     0.980625000000     0          


