data_zeolite

_audit_creation_method RASPA-1.0
_audit_creation_date 2020-12-24
_audit_author_name ''

_cell_length_a    29.619
_cell_length_b    26.27
_cell_length_c    26.31
_cell_angle_alpha 90
_cell_angle_beta  90
_cell_angle_gamma 90
_cell_volume      20471.6

_symmetry_cell_setting          orthorhombic
_symmetry_space_group_name_Hall 'P 1'
_symmetry_space_group_name_H-M  'P 1'
_symmetry_Int_Tables_number     1

_symmetry_equiv_pos_as_xyz 'x,y,z'

loop_
_atom_site_label
_atom_site_type_symbol
_atom_site_fract_x
_atom_site_fract_y
_atom_site_fract_z
_atom_site_charge
O        O      0.166666666667     0.050000000000     0.117433333333     0          
O        O      0.103333333333     0.000000000000     0.166666666667     0          
O        O      0.083333333333     0.050000000000     0.083333333333     0          
T        Si     0.114266666667     0.050000000000     0.133566666667     0          
O        O      0.230000000000     0.100000000000     0.166666666667     0          
O        O      0.250000000000     0.050000000000     0.083333333333     0          
T        Si     0.219066666667     0.050000000000     0.133566666667     0          
O        O      0.166666666667     0.150000000000     0.215900000000     0          
O        O      0.083333333333     0.150000000000     0.250000000000     0          
T        Si     0.114266666667     0.150000000000     0.199766666667     0          
O        O      0.250000000000     0.150000000000     0.250000000000     0          
T        Si     0.219066666667     0.150000000000     0.199766666667     0          
O        O      0.230000000000     0.000000000000     0.166666666667     0          
O        O      0.103333333333     0.100000000000     0.166666666667     0          
O        O      0.000000000000     0.150000000000     0.284100000000     0          
O        O      0.270000000000     0.100000000000     0.000000000000     0          
T        Si     0.280933333333     0.150000000000     0.300233333333     0          
O        O      0.063333333333     0.000000000000     0.000000000000     0          
T        Si     0.052400000000     0.150000000000     0.300233333333     0          
O        O      0.000000000000     0.050000000000     0.049233333333     0          
T        Si     0.280933333333     0.050000000000     0.033100000000     0          
T        Si     0.052400000000     0.050000000000     0.033100000000     0          
O        O      0.063333333333     0.100000000000     0.000000000000     0          
O        O      0.270000000000     0.000000000000     0.000000000000     0          
O        O      0.166666666667     0.050000000000     0.450766666667     0          
O        O      0.103333333333     0.000000000000     0.500000000000     0          
O        O      0.083333333333     0.050000000000     0.416666666667     0          
T        Si     0.114266666667     0.050000000000     0.466900000000     0          
O        O      0.230000000000     0.100000000000     0.500000000000     0          
O        O      0.250000000000     0.050000000000     0.416666666667     0          
T        Si     0.219066666667     0.050000000000     0.466900000000     0          
O        O      0.166666666667     0.150000000000     0.549233333333     0          
O        O      0.083333333333     0.150000000000     0.583333333333     0          
T        Si     0.114266666667     0.150000000000     0.533100000000     0          
O        O      0.250000000000     0.150000000000     0.583333333333     0          
T        Si     0.219066666667     0.150000000000     0.533100000000     0          
O        O      0.230000000000     0.000000000000     0.500000000000     0          
O        O      0.103333333333     0.100000000000     0.500000000000     0          
O        O      0.000000000000     0.150000000000     0.617433333333     0          
O        O      0.270000000000     0.100000000000     0.333333333333     0          
T        Si     0.280933333333     0.150000000000     0.633566666667     0          
O        O      0.063333333333     0.000000000000     0.333333333333     0          
T        Si     0.052400000000     0.150000000000     0.633566666667     0          
O        O      0.000000000000     0.050000000000     0.382566666667     0          
T        Si     0.280933333333     0.050000000000     0.366433333333     0          
T        Si     0.052400000000     0.050000000000     0.366433333333     0          
O        O      0.063333333333     0.100000000000     0.333333333333     0          
O        O      0.270000000000     0.000000000000     0.333333333333     0          
O        O      0.166666666667     0.050000000000     0.784100000000     0          
O        O      0.103333333333     0.000000000000     0.833333333333     0          
O        O      0.083333333333     0.050000000000     0.750000000000     0          
T        Si     0.114266666667     0.050000000000     0.800233333333     0          
O        O      0.230000000000     0.100000000000     0.833333333333     0          
O        O      0.250000000000     0.050000000000     0.750000000000     0          
T        Si     0.219066666667     0.050000000000     0.800233333333     0          
O        O      0.166666666667     0.150000000000     0.882566666667     0          
O        O      0.083333333333     0.150000000000     0.916666666667     0          
T        Si     0.114266666667     0.150000000000     0.866433333333     0          
O        O      0.250000000000     0.150000000000     0.916666666667     0          
T        Si     0.219066666667     0.150000000000     0.866433333333     0          
O        O      0.230000000000     0.000000000000     0.833333333333     0          
O        O      0.103333333333     0.100000000000     0.833333333333     0          
O        O      0.000000000000     0.150000000000     0.950766666667     0          
O        O      0.270000000000     0.100000000000     0.666666666667     0          
T        Si     0.280933333333     0.150000000000     0.966900000000     0          
O        O      0.063333333333     0.000000000000     0.666666666667     0          
T        Si     0.052400000000     0.150000000000     0.966900000000     0          
O        O      0.000000000000     0.050000000000     0.715900000000     0          
T        Si     0.280933333333     0.050000000000     0.699766666667     0          
T        Si     0.052400000000     0.050000000000     0.699766666667     0          
O        O      0.063333333333     0.100000000000     0.666666666667     0          
O        O      0.270000000000     0.000000000000     0.666666666667     0          
O        O      0.166666666667     0.250000000000     0.117433333333     0          
O        O      0.103333333333     0.200000000000     0.166666666667     0          
O        O      0.083333333333     0.250000000000     0.083333333333     0          
T        Si     0.114266666667     0.250000000000     0.133566666667     0          
O        O      0.230000000000     0.300000000000     0.166666666667     0          
O        O      0.250000000000     0.250000000000     0.083333333333     0          
T        Si     0.219066666667     0.250000000000     0.133566666667     0          
O        O      0.166666666667     0.350000000000     0.215900000000     0          
O        O      0.083333333333     0.350000000000     0.250000000000     0          
T        Si     0.114266666667     0.350000000000     0.199766666667     0          
O        O      0.250000000000     0.350000000000     0.250000000000     0          
T        Si     0.219066666667     0.350000000000     0.199766666667     0          
O        O      0.230000000000     0.200000000000     0.166666666667     0          
O        O      0.103333333333     0.300000000000     0.166666666667     0          
O        O      0.000000000000     0.350000000000     0.284100000000     0          
O        O      0.270000000000     0.300000000000     0.000000000000     0          
T        Si     0.280933333333     0.350000000000     0.300233333333     0          
O        O      0.063333333333     0.200000000000     0.000000000000     0          
T        Si     0.052400000000     0.350000000000     0.300233333333     0          
O        O      0.000000000000     0.250000000000     0.049233333333     0          
T        Si     0.280933333333     0.250000000000     0.033100000000     0          
T        Si     0.052400000000     0.250000000000     0.033100000000     0          
O        O      0.063333333333     0.300000000000     0.000000000000     0          
O        O      0.270000000000     0.200000000000     0.000000000000     0          
O        O      0.166666666667     0.250000000000     0.450766666667     0          
O        O      0.103333333333     0.200000000000     0.500000000000     0          
O        O      0.083333333333     0.250000000000     0.416666666667     0          
T        Si     0.114266666667     0.250000000000     0.466900000000     0          
O        O      0.230000000000     0.300000000000     0.500000000000     0          
O        O      0.250000000000     0.250000000000     0.416666666667     0          
T        Si     0.219066666667     0.250000000000     0.466900000000     0          
O        O      0.166666666667     0.350000000000     0.549233333333     0          
O        O      0.083333333333     0.350000000000     0.583333333333     0          
T        Si     0.114266666667     0.350000000000     0.533100000000     0          
O        O      0.250000000000     0.350000000000     0.583333333333     0          
T        Si     0.219066666667     0.350000000000     0.533100000000     0          
O        O      0.230000000000     0.200000000000     0.500000000000     0          
O        O      0.103333333333     0.300000000000     0.500000000000     0          
O        O      0.000000000000     0.350000000000     0.617433333333     0          
O        O      0.270000000000     0.300000000000     0.333333333333     0          
T        Si     0.280933333333     0.350000000000     0.633566666667     0          
O        O      0.063333333333     0.200000000000     0.333333333333     0          
T        Si     0.052400000000     0.350000000000     0.633566666667     0          
O        O      0.000000000000     0.250000000000     0.382566666667     0          
T        Si     0.280933333333     0.250000000000     0.366433333333     0          
T        Si     0.052400000000     0.250000000000     0.366433333333     0          
O        O      0.063333333333     0.300000000000     0.333333333333     0          
O        O      0.270000000000     0.200000000000     0.333333333333     0          
O        O      0.166666666667     0.250000000000     0.784100000000     0          
O        O      0.103333333333     0.200000000000     0.833333333333     0          
O        O      0.083333333333     0.250000000000     0.750000000000     0          
T        Si     0.114266666667     0.250000000000     0.800233333333     0          
O        O      0.230000000000     0.300000000000     0.833333333333     0          
O        O      0.250000000000     0.250000000000     0.750000000000     0          
T        Si     0.219066666667     0.250000000000     0.800233333333     0          
O        O      0.166666666667     0.350000000000     0.882566666667     0          
O        O      0.083333333333     0.350000000000     0.916666666667     0          
T        Si     0.114266666667     0.350000000000     0.866433333333     0          
O        O      0.250000000000     0.350000000000     0.916666666667     0          
T        Si     0.219066666667     0.350000000000     0.866433333333     0          
O        O      0.230000000000     0.200000000000     0.833333333333     0          
O        O      0.103333333333     0.300000000000     0.833333333333     0          
O        O      0.000000000000     0.350000000000     0.950766666667     0          
O        O      0.270000000000     0.300000000000     0.666666666667     0          
T        Si     0.280933333333     0.350000000000     0.966900000000     0          
O        O      0.063333333333     0.200000000000     0.666666666667     0          
T        Si     0.052400000000     0.350000000000     0.966900000000     0          
O        O      0.000000000000     0.250000000000     0.715900000000     0          
T        Si     0.280933333333     0.250000000000     0.699766666667     0          
T        Si     0.052400000000     0.250000000000     0.699766666667     0          
O        O      0.063333333333     0.300000000000     0.666666666667     0          
O        O      0.270000000000     0.200000000000     0.666666666667     0          
O        O      0.166666666667     0.450000000000     0.117433333333     0          
O        O      0.103333333333     0.400000000000     0.166666666667     0          
O        O      0.083333333333     0.450000000000     0.083333333333     0          
T        Si     0.114266666667     0.450000000000     0.133566666667     0          
O        O      0.230000000000     0.500000000000     0.166666666667     0          
O        O      0.250000000000     0.450000000000     0.083333333333     0          
T        Si     0.219066666667     0.450000000000     0.133566666667     0          
O        O      0.166666666667     0.550000000000     0.215900000000     0          
O        O      0.083333333333     0.550000000000     0.250000000000     0          
T        Si     0.114266666667     0.550000000000     0.199766666667     0          
O        O      0.250000000000     0.550000000000     0.250000000000     0          
T        Si     0.219066666667     0.550000000000     0.199766666667     0          
O        O      0.230000000000     0.400000000000     0.166666666667     0          
O        O      0.103333333333     0.500000000000     0.166666666667     0          
O        O      0.000000000000     0.550000000000     0.284100000000     0          
O        O      0.270000000000     0.500000000000     0.000000000000     0          
T        Si     0.280933333333     0.550000000000     0.300233333333     0          
O        O      0.063333333333     0.400000000000     0.000000000000     0          
T        Si     0.052400000000     0.550000000000     0.300233333333     0          
O        O      0.000000000000     0.450000000000     0.049233333333     0          
T        Si     0.280933333333     0.450000000000     0.033100000000     0          
T        Si     0.052400000000     0.450000000000     0.033100000000     0          
O        O      0.063333333333     0.500000000000     0.000000000000     0          
O        O      0.270000000000     0.400000000000     0.000000000000     0          
O        O      0.166666666667     0.450000000000     0.450766666667     0          
O        O      0.103333333333     0.400000000000     0.500000000000     0          
O        O      0.083333333333     0.450000000000     0.416666666667     0          
T        Si     0.114266666667     0.450000000000     0.466900000000     0          
O        O      0.230000000000     0.500000000000     0.500000000000     0          
O        O      0.250000000000     0.450000000000     0.416666666667     0          
T        Si     0.219066666667     0.450000000000     0.466900000000     0          
O        O      0.166666666667     0.550000000000     0.549233333333     0          
O        O      0.083333333333     0.550000000000     0.583333333333     0          
T        Si     0.114266666667     0.550000000000     0.533100000000     0          
O        O      0.250000000000     0.550000000000     0.583333333333     0          
T        Si     0.219066666667     0.550000000000     0.533100000000     0          
O        O      0.230000000000     0.400000000000     0.500000000000     0          
O        O      0.103333333333     0.500000000000     0.500000000000     0          
O        O      0.000000000000     0.550000000000     0.617433333333     0          
O        O      0.270000000000     0.500000000000     0.333333333333     0          
T        Si     0.280933333333     0.550000000000     0.633566666667     0          
O        O      0.063333333333     0.400000000000     0.333333333333     0          
T        Si     0.052400000000     0.550000000000     0.633566666667     0          
O        O      0.000000000000     0.450000000000     0.382566666667     0          
T        Si     0.280933333333     0.450000000000     0.366433333333     0          
T        Si     0.052400000000     0.450000000000     0.366433333333     0          
O        O      0.063333333333     0.500000000000     0.333333333333     0          
O        O      0.270000000000     0.400000000000     0.333333333333     0          
O        O      0.166666666667     0.450000000000     0.784100000000     0          
O        O      0.103333333333     0.400000000000     0.833333333333     0          
O        O      0.083333333333     0.450000000000     0.750000000000     0          
T        Si     0.114266666667     0.450000000000     0.800233333333     0          
O        O      0.230000000000     0.500000000000     0.833333333333     0          
O        O      0.250000000000     0.450000000000     0.750000000000     0          
T        Si     0.219066666667     0.450000000000     0.800233333333     0          
O        O      0.166666666667     0.550000000000     0.882566666667     0          
O        O      0.083333333333     0.550000000000     0.916666666667     0          
T        Si     0.114266666667     0.550000000000     0.866433333333     0          
O        O      0.250000000000     0.550000000000     0.916666666667     0          
T        Si     0.219066666667     0.550000000000     0.866433333333     0          
O        O      0.230000000000     0.400000000000     0.833333333333     0          
O        O      0.103333333333     0.500000000000     0.833333333333     0          
O        O      0.000000000000     0.550000000000     0.950766666667     0          
O        O      0.270000000000     0.500000000000     0.666666666667     0          
T        Si     0.280933333333     0.550000000000     0.966900000000     0          
O        O      0.063333333333     0.400000000000     0.666666666667     0          
T        Si     0.052400000000     0.550000000000     0.966900000000     0          
O        O      0.000000000000     0.450000000000     0.715900000000     0          
T        Si     0.280933333333     0.450000000000     0.699766666667     0          
T        Si     0.052400000000     0.450000000000     0.699766666667     0          
O        O      0.063333333333     0.500000000000     0.666666666667     0          
O        O      0.270000000000     0.400000000000     0.666666666667     0          
O        O      0.166666666667     0.650000000000     0.117433333333     0          
O        O      0.103333333333     0.600000000000     0.166666666667     0          
O        O      0.083333333333     0.650000000000     0.083333333333     0          
T        Si     0.114266666667     0.650000000000     0.133566666667     0          
O        O      0.230000000000     0.700000000000     0.166666666667     0          
O        O      0.250000000000     0.650000000000     0.083333333333     0          
T        Si     0.219066666667     0.650000000000     0.133566666667     0          
O        O      0.166666666667     0.750000000000     0.215900000000     0          
O        O      0.083333333333     0.750000000000     0.250000000000     0          
T        Si     0.114266666667     0.750000000000     0.199766666667     0          
O        O      0.250000000000     0.750000000000     0.250000000000     0          
T        Si     0.219066666667     0.750000000000     0.199766666667     0          
O        O      0.230000000000     0.600000000000     0.166666666667     0          
O        O      0.103333333333     0.700000000000     0.166666666667     0          
O        O      0.000000000000     0.750000000000     0.284100000000     0          
O        O      0.270000000000     0.700000000000     0.000000000000     0          
T        Si     0.280933333333     0.750000000000     0.300233333333     0          
O        O      0.063333333333     0.600000000000     0.000000000000     0          
T        Si     0.052400000000     0.750000000000     0.300233333333     0          
O        O      0.000000000000     0.650000000000     0.049233333333     0          
T        Si     0.280933333333     0.650000000000     0.033100000000     0          
T        Si     0.052400000000     0.650000000000     0.033100000000     0          
O        O      0.063333333333     0.700000000000     0.000000000000     0          
O        O      0.270000000000     0.600000000000     0.000000000000     0          
O        O      0.166666666667     0.650000000000     0.450766666667     0          
O        O      0.103333333333     0.600000000000     0.500000000000     0          
O        O      0.083333333333     0.650000000000     0.416666666667     0          
T        Si     0.114266666667     0.650000000000     0.466900000000     0          
O        O      0.230000000000     0.700000000000     0.500000000000     0          
O        O      0.250000000000     0.650000000000     0.416666666667     0          
T        Si     0.219066666667     0.650000000000     0.466900000000     0          
O        O      0.166666666667     0.750000000000     0.549233333333     0          
O        O      0.083333333333     0.750000000000     0.583333333333     0          
T        Si     0.114266666667     0.750000000000     0.533100000000     0          
O        O      0.250000000000     0.750000000000     0.583333333333     0          
T        Si     0.219066666667     0.750000000000     0.533100000000     0          
O        O      0.230000000000     0.600000000000     0.500000000000     0          
O        O      0.103333333333     0.700000000000     0.500000000000     0          
O        O      0.000000000000     0.750000000000     0.617433333333     0          
O        O      0.270000000000     0.700000000000     0.333333333333     0          
T        Si     0.280933333333     0.750000000000     0.633566666667     0          
O        O      0.063333333333     0.600000000000     0.333333333333     0          
T        Si     0.052400000000     0.750000000000     0.633566666667     0          
O        O      0.000000000000     0.650000000000     0.382566666667     0          
T        Si     0.280933333333     0.650000000000     0.366433333333     0          
T        Si     0.052400000000     0.650000000000     0.366433333333     0          
O        O      0.063333333333     0.700000000000     0.333333333333     0          
O        O      0.270000000000     0.600000000000     0.333333333333     0          
O        O      0.166666666667     0.650000000000     0.784100000000     0          
O        O      0.103333333333     0.600000000000     0.833333333333     0          
O        O      0.083333333333     0.650000000000     0.750000000000     0          
T        Si     0.114266666667     0.650000000000     0.800233333333     0          
O        O      0.230000000000     0.700000000000     0.833333333333     0          
O        O      0.250000000000     0.650000000000     0.750000000000     0          
T        Si     0.219066666667     0.650000000000     0.800233333333     0          
O        O      0.166666666667     0.750000000000     0.882566666667     0          
O        O      0.083333333333     0.750000000000     0.916666666667     0          
T        Si     0.114266666667     0.750000000000     0.866433333333     0          
O        O      0.250000000000     0.750000000000     0.916666666667     0          
T        Si     0.219066666667     0.750000000000     0.866433333333     0          
O        O      0.230000000000     0.600000000000     0.833333333333     0          
O        O      0.103333333333     0.700000000000     0.833333333333     0          
O        O      0.000000000000     0.750000000000     0.950766666667     0          
O        O      0.270000000000     0.700000000000     0.666666666667     0          
T        Si     0.280933333333     0.750000000000     0.966900000000     0          
O        O      0.063333333333     0.600000000000     0.666666666667     0          
T        Si     0.052400000000     0.750000000000     0.966900000000     0          
O        O      0.000000000000     0.650000000000     0.715900000000     0          
T        Si     0.280933333333     0.650000000000     0.699766666667     0          
T        Si     0.052400000000     0.650000000000     0.699766666667     0          
O        O      0.063333333333     0.700000000000     0.666666666667     0          
O        O      0.270000000000     0.600000000000     0.666666666667     0          
O        O      0.166666666667     0.850000000000     0.117433333333     0          
O        O      0.103333333333     0.800000000000     0.166666666667     0          
O        O      0.083333333333     0.850000000000     0.083333333333     0          
T        Si     0.114266666667     0.850000000000     0.133566666667     0          
O        O      0.230000000000     0.900000000000     0.166666666667     0          
O        O      0.250000000000     0.850000000000     0.083333333333     0          
T        Si     0.219066666667     0.850000000000     0.133566666667     0          
O        O      0.166666666667     0.950000000000     0.215900000000     0          
O        O      0.083333333333     0.950000000000     0.250000000000     0          
T        Si     0.114266666667     0.950000000000     0.199766666667     0          
O        O      0.250000000000     0.950000000000     0.250000000000     0          
T        Si     0.219066666667     0.950000000000     0.199766666667     0          
O        O      0.230000000000     0.800000000000     0.166666666667     0          
O        O      0.103333333333     0.900000000000     0.166666666667     0          
O        O      0.000000000000     0.950000000000     0.284100000000     0          
O        O      0.270000000000     0.900000000000     0.000000000000     0          
T        Si     0.280933333333     0.950000000000     0.300233333333     0          
O        O      0.063333333333     0.800000000000     0.000000000000     0          
T        Si     0.052400000000     0.950000000000     0.300233333333     0          
O        O      0.000000000000     0.850000000000     0.049233333333     0          
T        Si     0.280933333333     0.850000000000     0.033100000000     0          
T        Si     0.052400000000     0.850000000000     0.033100000000     0          
O        O      0.063333333333     0.900000000000     0.000000000000     0          
O        O      0.270000000000     0.800000000000     0.000000000000     0          
O        O      0.166666666667     0.850000000000     0.450766666667     0          
O        O      0.103333333333     0.800000000000     0.500000000000     0          
O        O      0.083333333333     0.850000000000     0.416666666667     0          
T        Si     0.114266666667     0.850000000000     0.466900000000     0          
O        O      0.230000000000     0.900000000000     0.500000000000     0          
O        O      0.250000000000     0.850000000000     0.416666666667     0          
T        Si     0.219066666667     0.850000000000     0.466900000000     0          
O        O      0.166666666667     0.950000000000     0.549233333333     0          
O        O      0.083333333333     0.950000000000     0.583333333333     0          
T        Si     0.114266666667     0.950000000000     0.533100000000     0          
O        O      0.250000000000     0.950000000000     0.583333333333     0          
T        Si     0.219066666667     0.950000000000     0.533100000000     0          
O        O      0.230000000000     0.800000000000     0.500000000000     0          
O        O      0.103333333333     0.900000000000     0.500000000000     0          
O        O      0.000000000000     0.950000000000     0.617433333333     0          
O        O      0.270000000000     0.900000000000     0.333333333333     0          
T        Si     0.280933333333     0.950000000000     0.633566666667     0          
O        O      0.063333333333     0.800000000000     0.333333333333     0          
T        Si     0.052400000000     0.950000000000     0.633566666667     0          
O        O      0.000000000000     0.850000000000     0.382566666667     0          
T        Si     0.280933333333     0.850000000000     0.366433333333     0          
T        Si     0.052400000000     0.850000000000     0.366433333333     0          
O        O      0.063333333333     0.900000000000     0.333333333333     0          
O        O      0.270000000000     0.800000000000     0.333333333333     0          
O        O      0.166666666667     0.850000000000     0.784100000000     0          
O        O      0.103333333333     0.800000000000     0.833333333333     0          
O        O      0.083333333333     0.850000000000     0.750000000000     0          
T        Si     0.114266666667     0.850000000000     0.800233333333     0          
O        O      0.230000000000     0.900000000000     0.833333333333     0          
O        O      0.250000000000     0.850000000000     0.750000000000     0          
T        Si     0.219066666667     0.850000000000     0.800233333333     0          
O        O      0.166666666667     0.950000000000     0.882566666667     0          
O        O      0.083333333333     0.950000000000     0.916666666667     0          
T        Si     0.114266666667     0.950000000000     0.866433333333     0          
O        O      0.250000000000     0.950000000000     0.916666666667     0          
T        Si     0.219066666667     0.950000000000     0.866433333333     0          
O        O      0.230000000000     0.800000000000     0.833333333333     0          
O        O      0.103333333333     0.900000000000     0.833333333333     0          
O        O      0.000000000000     0.950000000000     0.950766666667     0          
O        O      0.270000000000     0.900000000000     0.666666666667     0          
T        Si     0.280933333333     0.950000000000     0.966900000000     0          
O        O      0.063333333333     0.800000000000     0.666666666667     0          
T        Si     0.052400000000     0.950000000000     0.966900000000     0          
O        O      0.000000000000     0.850000000000     0.715900000000     0          
T        Si     0.280933333333     0.850000000000     0.699766666667     0          
T        Si     0.052400000000     0.850000000000     0.699766666667     0          
O        O      0.063333333333     0.900000000000     0.666666666667     0          
O        O      0.270000000000     0.800000000000     0.666666666667     0          
O        O      0.500000000000     0.050000000000     0.117433333333     0          
O        O      0.436666666667     0.000000000000     0.166666666667     0          
O        O      0.416666666667     0.050000000000     0.083333333333     0          
T        Si     0.447600000000     0.050000000000     0.133566666667     0          
O        O      0.563333333333     0.100000000000     0.166666666667     0          
O        O      0.583333333333     0.050000000000     0.083333333333     0          
T        Si     0.552400000000     0.050000000000     0.133566666667     0          
O        O      0.500000000000     0.150000000000     0.215900000000     0          
O        O      0.416666666667     0.150000000000     0.250000000000     0          
T        Si     0.447600000000     0.150000000000     0.199766666667     0          
O        O      0.583333333333     0.150000000000     0.250000000000     0          
T        Si     0.552400000000     0.150000000000     0.199766666667     0          
O        O      0.563333333333     0.000000000000     0.166666666667     0          
O        O      0.436666666667     0.100000000000     0.166666666667     0          
O        O      0.333333333333     0.150000000000     0.284100000000     0          
O        O      0.603333333333     0.100000000000     0.000000000000     0          
T        Si     0.614266666667     0.150000000000     0.300233333333     0          
O        O      0.396666666667     0.000000000000     0.000000000000     0          
T        Si     0.385733333333     0.150000000000     0.300233333333     0          
O        O      0.333333333333     0.050000000000     0.049233333333     0          
T        Si     0.614266666667     0.050000000000     0.033100000000     0          
T        Si     0.385733333333     0.050000000000     0.033100000000     0          
O        O      0.396666666667     0.100000000000     0.000000000000     0          
O        O      0.603333333333     0.000000000000     0.000000000000     0          
O        O      0.500000000000     0.050000000000     0.450766666667     0          
O        O      0.436666666667     0.000000000000     0.500000000000     0          
O        O      0.416666666667     0.050000000000     0.416666666667     0          
T        Si     0.447600000000     0.050000000000     0.466900000000     0          
O        O      0.563333333333     0.100000000000     0.500000000000     0          
O        O      0.583333333333     0.050000000000     0.416666666667     0          
T        Si     0.552400000000     0.050000000000     0.466900000000     0          
O        O      0.500000000000     0.150000000000     0.549233333333     0          
O        O      0.416666666667     0.150000000000     0.583333333333     0          
T        Si     0.447600000000     0.150000000000     0.533100000000     0          
O        O      0.583333333333     0.150000000000     0.583333333333     0          
T        Si     0.552400000000     0.150000000000     0.533100000000     0          
O        O      0.563333333333     0.000000000000     0.500000000000     0          
O        O      0.436666666667     0.100000000000     0.500000000000     0          
O        O      0.333333333333     0.150000000000     0.617433333333     0          
O        O      0.603333333333     0.100000000000     0.333333333333     0          
T        Si     0.614266666667     0.150000000000     0.633566666667     0          
O        O      0.396666666667     0.000000000000     0.333333333333     0          
T        Si     0.385733333333     0.150000000000     0.633566666667     0          
O        O      0.333333333333     0.050000000000     0.382566666667     0          
T        Si     0.614266666667     0.050000000000     0.366433333333     0          
T        Si     0.385733333333     0.050000000000     0.366433333333     0          
O        O      0.396666666667     0.100000000000     0.333333333333     0          
O        O      0.603333333333     0.000000000000     0.333333333333     0          
O        O      0.500000000000     0.050000000000     0.784100000000     0          
O        O      0.436666666667     0.000000000000     0.833333333333     0          
O        O      0.416666666667     0.050000000000     0.750000000000     0          
T        Si     0.447600000000     0.050000000000     0.800233333333     0          
O        O      0.563333333333     0.100000000000     0.833333333333     0          
O        O      0.583333333333     0.050000000000     0.750000000000     0          
T        Si     0.552400000000     0.050000000000     0.800233333333     0          
O        O      0.500000000000     0.150000000000     0.882566666667     0          
O        O      0.416666666667     0.150000000000     0.916666666667     0          
T        Si     0.447600000000     0.150000000000     0.866433333333     0          
O        O      0.583333333333     0.150000000000     0.916666666667     0          
T        Si     0.552400000000     0.150000000000     0.866433333333     0          
O        O      0.563333333333     0.000000000000     0.833333333333     0          
O        O      0.436666666667     0.100000000000     0.833333333333     0          
O        O      0.333333333333     0.150000000000     0.950766666667     0          
O        O      0.603333333333     0.100000000000     0.666666666667     0          
T        Si     0.614266666667     0.150000000000     0.966900000000     0          
O        O      0.396666666667     0.000000000000     0.666666666667     0          
T        Si     0.385733333333     0.150000000000     0.966900000000     0          
O        O      0.333333333333     0.050000000000     0.715900000000     0          
T        Si     0.614266666667     0.050000000000     0.699766666667     0          
T        Si     0.385733333333     0.050000000000     0.699766666667     0          
O        O      0.396666666667     0.100000000000     0.666666666667     0          
O        O      0.603333333333     0.000000000000     0.666666666667     0          
O        O      0.500000000000     0.250000000000     0.117433333333     0          
O        O      0.436666666667     0.200000000000     0.166666666667     0          
O        O      0.416666666667     0.250000000000     0.083333333333     0          
T        Si     0.447600000000     0.250000000000     0.133566666667     0          
O        O      0.563333333333     0.300000000000     0.166666666667     0          
O        O      0.583333333333     0.250000000000     0.083333333333     0          
T        Si     0.552400000000     0.250000000000     0.133566666667     0          
O        O      0.500000000000     0.350000000000     0.215900000000     0          
O        O      0.416666666667     0.350000000000     0.250000000000     0          
T        Si     0.447600000000     0.350000000000     0.199766666667     0          
O        O      0.583333333333     0.350000000000     0.250000000000     0          
T        Si     0.552400000000     0.350000000000     0.199766666667     0          
O        O      0.563333333333     0.200000000000     0.166666666667     0          
O        O      0.436666666667     0.300000000000     0.166666666667     0          
O        O      0.333333333333     0.350000000000     0.284100000000     0          
O        O      0.603333333333     0.300000000000     0.000000000000     0          
T        Si     0.614266666667     0.350000000000     0.300233333333     0          
O        O      0.396666666667     0.200000000000     0.000000000000     0          
T        Si     0.385733333333     0.350000000000     0.300233333333     0          
O        O      0.333333333333     0.250000000000     0.049233333333     0          
T        Si     0.614266666667     0.250000000000     0.033100000000     0          
T        Si     0.385733333333     0.250000000000     0.033100000000     0          
O        O      0.396666666667     0.300000000000     0.000000000000     0          
O        O      0.603333333333     0.200000000000     0.000000000000     0          
O        O      0.500000000000     0.250000000000     0.450766666667     0          
O        O      0.436666666667     0.200000000000     0.500000000000     0          
O        O      0.416666666667     0.250000000000     0.416666666667     0          
T        Si     0.447600000000     0.250000000000     0.466900000000     0          
O        O      0.563333333333     0.300000000000     0.500000000000     0          
O        O      0.583333333333     0.250000000000     0.416666666667     0          
T        Si     0.552400000000     0.250000000000     0.466900000000     0          
O        O      0.500000000000     0.350000000000     0.549233333333     0          
O        O      0.416666666667     0.350000000000     0.583333333333     0          
T        Si     0.447600000000     0.350000000000     0.533100000000     0          
O        O      0.583333333333     0.350000000000     0.583333333333     0          
T        Si     0.552400000000     0.350000000000     0.533100000000     0          
O        O      0.563333333333     0.200000000000     0.500000000000     0          
O        O      0.436666666667     0.300000000000     0.500000000000     0          
O        O      0.333333333333     0.350000000000     0.617433333333     0          
O        O      0.603333333333     0.300000000000     0.333333333333     0          
T        Si     0.614266666667     0.350000000000     0.633566666667     0          
O        O      0.396666666667     0.200000000000     0.333333333333     0          
T        Si     0.385733333333     0.350000000000     0.633566666667     0          
O        O      0.333333333333     0.250000000000     0.382566666667     0          
T        Si     0.614266666667     0.250000000000     0.366433333333     0          
T        Si     0.385733333333     0.250000000000     0.366433333333     0          
O        O      0.396666666667     0.300000000000     0.333333333333     0          
O        O      0.603333333333     0.200000000000     0.333333333333     0          
O        O      0.500000000000     0.250000000000     0.784100000000     0          
O        O      0.436666666667     0.200000000000     0.833333333333     0          
O        O      0.416666666667     0.250000000000     0.750000000000     0          
T        Si     0.447600000000     0.250000000000     0.800233333333     0          
O        O      0.563333333333     0.300000000000     0.833333333333     0          
O        O      0.583333333333     0.250000000000     0.750000000000     0          
T        Si     0.552400000000     0.250000000000     0.800233333333     0          
O        O      0.500000000000     0.350000000000     0.882566666667     0          
O        O      0.416666666667     0.350000000000     0.916666666667     0          
T        Si     0.447600000000     0.350000000000     0.866433333333     0          
O        O      0.583333333333     0.350000000000     0.916666666667     0          
T        Si     0.552400000000     0.350000000000     0.866433333333     0          
O        O      0.563333333333     0.200000000000     0.833333333333     0          
O        O      0.436666666667     0.300000000000     0.833333333333     0          
O        O      0.333333333333     0.350000000000     0.950766666667     0          
O        O      0.603333333333     0.300000000000     0.666666666667     0          
T        Si     0.614266666667     0.350000000000     0.966900000000     0          
O        O      0.396666666667     0.200000000000     0.666666666667     0          
T        Si     0.385733333333     0.350000000000     0.966900000000     0          
O        O      0.333333333333     0.250000000000     0.715900000000     0          
T        Si     0.614266666667     0.250000000000     0.699766666667     0          
T        Si     0.385733333333     0.250000000000     0.699766666667     0          
O        O      0.396666666667     0.300000000000     0.666666666667     0          
O        O      0.603333333333     0.200000000000     0.666666666667     0          
O        O      0.500000000000     0.450000000000     0.117433333333     0          
O        O      0.436666666667     0.400000000000     0.166666666667     0          
O        O      0.416666666667     0.450000000000     0.083333333333     0          
T        Si     0.447600000000     0.450000000000     0.133566666667     0          
O        O      0.563333333333     0.500000000000     0.166666666667     0          
O        O      0.583333333333     0.450000000000     0.083333333333     0          
T        Si     0.552400000000     0.450000000000     0.133566666667     0          
O        O      0.500000000000     0.550000000000     0.215900000000     0          
O        O      0.416666666667     0.550000000000     0.250000000000     0          
T        Si     0.447600000000     0.550000000000     0.199766666667     0          
O        O      0.583333333333     0.550000000000     0.250000000000     0          
T        Si     0.552400000000     0.550000000000     0.199766666667     0          
O        O      0.563333333333     0.400000000000     0.166666666667     0          
O        O      0.436666666667     0.500000000000     0.166666666667     0          
O        O      0.333333333333     0.550000000000     0.284100000000     0          
O        O      0.603333333333     0.500000000000     0.000000000000     0          
T        Si     0.614266666667     0.550000000000     0.300233333333     0          
O        O      0.396666666667     0.400000000000     0.000000000000     0          
T        Si     0.385733333333     0.550000000000     0.300233333333     0          
O        O      0.333333333333     0.450000000000     0.049233333333     0          
T        Si     0.614266666667     0.450000000000     0.033100000000     0          
T        Si     0.385733333333     0.450000000000     0.033100000000     0          
O        O      0.396666666667     0.500000000000     0.000000000000     0          
O        O      0.603333333333     0.400000000000     0.000000000000     0          
O        O      0.500000000000     0.450000000000     0.450766666667     0          
O        O      0.436666666667     0.400000000000     0.500000000000     0          
O        O      0.416666666667     0.450000000000     0.416666666667     0          
T        Si     0.447600000000     0.450000000000     0.466900000000     0          
O        O      0.563333333333     0.500000000000     0.500000000000     0          
O        O      0.583333333333     0.450000000000     0.416666666667     0          
T        Si     0.552400000000     0.450000000000     0.466900000000     0          
O        O      0.500000000000     0.550000000000     0.549233333333     0          
O        O      0.416666666667     0.550000000000     0.583333333333     0          
T        Si     0.447600000000     0.550000000000     0.533100000000     0          
O        O      0.583333333333     0.550000000000     0.583333333333     0          
T        Si     0.552400000000     0.550000000000     0.533100000000     0          
O        O      0.563333333333     0.400000000000     0.500000000000     0          
O        O      0.436666666667     0.500000000000     0.500000000000     0          
O        O      0.333333333333     0.550000000000     0.617433333333     0          
O        O      0.603333333333     0.500000000000     0.333333333333     0          
T        Si     0.614266666667     0.550000000000     0.633566666667     0          
O        O      0.396666666667     0.400000000000     0.333333333333     0          
T        Si     0.385733333333     0.550000000000     0.633566666667     0          
O        O      0.333333333333     0.450000000000     0.382566666667     0          
T        Si     0.614266666667     0.450000000000     0.366433333333     0          
T        Si     0.385733333333     0.450000000000     0.366433333333     0          
O        O      0.396666666667     0.500000000000     0.333333333333     0          
O        O      0.603333333333     0.400000000000     0.333333333333     0          
O        O      0.500000000000     0.450000000000     0.784100000000     0          
O        O      0.436666666667     0.400000000000     0.833333333333     0          
O        O      0.416666666667     0.450000000000     0.750000000000     0          
T        Si     0.447600000000     0.450000000000     0.800233333333     0          
O        O      0.563333333333     0.500000000000     0.833333333333     0          
O        O      0.583333333333     0.450000000000     0.750000000000     0          
T        Si     0.552400000000     0.450000000000     0.800233333333     0          
O        O      0.500000000000     0.550000000000     0.882566666667     0          
O        O      0.416666666667     0.550000000000     0.916666666667     0          
T        Si     0.447600000000     0.550000000000     0.866433333333     0          
O        O      0.583333333333     0.550000000000     0.916666666667     0          
T        Si     0.552400000000     0.550000000000     0.866433333333     0          
O        O      0.563333333333     0.400000000000     0.833333333333     0          
O        O      0.436666666667     0.500000000000     0.833333333333     0          
O        O      0.333333333333     0.550000000000     0.950766666667     0          
O        O      0.603333333333     0.500000000000     0.666666666667     0          
T        Si     0.614266666667     0.550000000000     0.966900000000     0          
O        O      0.396666666667     0.400000000000     0.666666666667     0          
T        Si     0.385733333333     0.550000000000     0.966900000000     0          
O        O      0.333333333333     0.450000000000     0.715900000000     0          
T        Si     0.614266666667     0.450000000000     0.699766666667     0          
T        Si     0.385733333333     0.450000000000     0.699766666667     0          
O        O      0.396666666667     0.500000000000     0.666666666667     0          
O        O      0.603333333333     0.400000000000     0.666666666667     0          
O        O      0.500000000000     0.650000000000     0.117433333333     0          
O        O      0.436666666667     0.600000000000     0.166666666667     0          
O        O      0.416666666667     0.650000000000     0.083333333333     0          
T        Si     0.447600000000     0.650000000000     0.133566666667     0          
O        O      0.563333333333     0.700000000000     0.166666666667     0          
O        O      0.583333333333     0.650000000000     0.083333333333     0          
T        Si     0.552400000000     0.650000000000     0.133566666667     0          
O        O      0.500000000000     0.750000000000     0.215900000000     0          
O        O      0.416666666667     0.750000000000     0.250000000000     0          
T        Si     0.447600000000     0.750000000000     0.199766666667     0          
O        O      0.583333333333     0.750000000000     0.250000000000     0          
T        Si     0.552400000000     0.750000000000     0.199766666667     0          
O        O      0.563333333333     0.600000000000     0.166666666667     0          
O        O      0.436666666667     0.700000000000     0.166666666667     0          
O        O      0.333333333333     0.750000000000     0.284100000000     0          
O        O      0.603333333333     0.700000000000     0.000000000000     0          
T        Si     0.614266666667     0.750000000000     0.300233333333     0          
O        O      0.396666666667     0.600000000000     0.000000000000     0          
T        Si     0.385733333333     0.750000000000     0.300233333333     0          
O        O      0.333333333333     0.650000000000     0.049233333333     0          
T        Si     0.614266666667     0.650000000000     0.033100000000     0          
T        Si     0.385733333333     0.650000000000     0.033100000000     0          
O        O      0.396666666667     0.700000000000     0.000000000000     0          
O        O      0.603333333333     0.600000000000     0.000000000000     0          
O        O      0.500000000000     0.650000000000     0.450766666667     0          
O        O      0.436666666667     0.600000000000     0.500000000000     0          
O        O      0.416666666667     0.650000000000     0.416666666667     0          
T        Si     0.447600000000     0.650000000000     0.466900000000     0          
O        O      0.563333333333     0.700000000000     0.500000000000     0          
O        O      0.583333333333     0.650000000000     0.416666666667     0          
T        Si     0.552400000000     0.650000000000     0.466900000000     0          
O        O      0.500000000000     0.750000000000     0.549233333333     0          
O        O      0.416666666667     0.750000000000     0.583333333333     0          
T        Si     0.447600000000     0.750000000000     0.533100000000     0          
O        O      0.583333333333     0.750000000000     0.583333333333     0          
T        Si     0.552400000000     0.750000000000     0.533100000000     0          
O        O      0.563333333333     0.600000000000     0.500000000000     0          
O        O      0.436666666667     0.700000000000     0.500000000000     0          
O        O      0.333333333333     0.750000000000     0.617433333333     0          
O        O      0.603333333333     0.700000000000     0.333333333333     0          
T        Si     0.614266666667     0.750000000000     0.633566666667     0          
O        O      0.396666666667     0.600000000000     0.333333333333     0          
T        Si     0.385733333333     0.750000000000     0.633566666667     0          
O        O      0.333333333333     0.650000000000     0.382566666667     0          
T        Si     0.614266666667     0.650000000000     0.366433333333     0          
T        Si     0.385733333333     0.650000000000     0.366433333333     0          
O        O      0.396666666667     0.700000000000     0.333333333333     0          
O        O      0.603333333333     0.600000000000     0.333333333333     0          
O        O      0.500000000000     0.650000000000     0.784100000000     0          
O        O      0.436666666667     0.600000000000     0.833333333333     0          
O        O      0.416666666667     0.650000000000     0.750000000000     0          
T        Si     0.447600000000     0.650000000000     0.800233333333     0          
O        O      0.563333333333     0.700000000000     0.833333333333     0          
O        O      0.583333333333     0.650000000000     0.750000000000     0          
T        Si     0.552400000000     0.650000000000     0.800233333333     0          
O        O      0.500000000000     0.750000000000     0.882566666667     0          
O        O      0.416666666667     0.750000000000     0.916666666667     0          
T        Si     0.447600000000     0.750000000000     0.866433333333     0          
O        O      0.583333333333     0.750000000000     0.916666666667     0          
T        Si     0.552400000000     0.750000000000     0.866433333333     0          
O        O      0.563333333333     0.600000000000     0.833333333333     0          
O        O      0.436666666667     0.700000000000     0.833333333333     0          
O        O      0.333333333333     0.750000000000     0.950766666667     0          
O        O      0.603333333333     0.700000000000     0.666666666667     0          
T        Si     0.614266666667     0.750000000000     0.966900000000     0          
O        O      0.396666666667     0.600000000000     0.666666666667     0          
T        Si     0.385733333333     0.750000000000     0.966900000000     0          
O        O      0.333333333333     0.650000000000     0.715900000000     0          
T        Si     0.614266666667     0.650000000000     0.699766666667     0          
T        Si     0.385733333333     0.650000000000     0.699766666667     0          
O        O      0.396666666667     0.700000000000     0.666666666667     0          
O        O      0.603333333333     0.600000000000     0.666666666667     0          
O        O      0.500000000000     0.850000000000     0.117433333333     0          
O        O      0.436666666667     0.800000000000     0.166666666667     0          
O        O      0.416666666667     0.850000000000     0.083333333333     0          
T        Si     0.447600000000     0.850000000000     0.133566666667     0          
O        O      0.563333333333     0.900000000000     0.166666666667     0          
O        O      0.583333333333     0.850000000000     0.083333333333     0          
T        Si     0.552400000000     0.850000000000     0.133566666667     0          
O        O      0.500000000000     0.950000000000     0.215900000000     0          
O        O      0.416666666667     0.950000000000     0.250000000000     0          
T        Si     0.447600000000     0.950000000000     0.199766666667     0          
O        O      0.583333333333     0.950000000000     0.250000000000     0          
T        Si     0.552400000000     0.950000000000     0.199766666667     0          
O        O      0.563333333333     0.800000000000     0.166666666667     0          
O        O      0.436666666667     0.900000000000     0.166666666667     0          
O        O      0.333333333333     0.950000000000     0.284100000000     0          
O        O      0.603333333333     0.900000000000     0.000000000000     0          
T        Si     0.614266666667     0.950000000000     0.300233333333     0          
O        O      0.396666666667     0.800000000000     0.000000000000     0          
T        Si     0.385733333333     0.950000000000     0.300233333333     0          
O        O      0.333333333333     0.850000000000     0.049233333333     0          
T        Si     0.614266666667     0.850000000000     0.033100000000     0          
T        Si     0.385733333333     0.850000000000     0.033100000000     0          
O        O      0.396666666667     0.900000000000     0.000000000000     0          
O        O      0.603333333333     0.800000000000     0.000000000000     0          
O        O      0.500000000000     0.850000000000     0.450766666667     0          
O        O      0.436666666667     0.800000000000     0.500000000000     0          
O        O      0.416666666667     0.850000000000     0.416666666667     0          
T        Si     0.447600000000     0.850000000000     0.466900000000     0          
O        O      0.563333333333     0.900000000000     0.500000000000     0          
O        O      0.583333333333     0.850000000000     0.416666666667     0          
T        Si     0.552400000000     0.850000000000     0.466900000000     0          
O        O      0.500000000000     0.950000000000     0.549233333333     0          
O        O      0.416666666667     0.950000000000     0.583333333333     0          
T        Si     0.447600000000     0.950000000000     0.533100000000     0          
O        O      0.583333333333     0.950000000000     0.583333333333     0          
T        Si     0.552400000000     0.950000000000     0.533100000000     0          
O        O      0.563333333333     0.800000000000     0.500000000000     0          
O        O      0.436666666667     0.900000000000     0.500000000000     0          
O        O      0.333333333333     0.950000000000     0.617433333333     0          
O        O      0.603333333333     0.900000000000     0.333333333333     0          
T        Si     0.614266666667     0.950000000000     0.633566666667     0          
O        O      0.396666666667     0.800000000000     0.333333333333     0          
T        Si     0.385733333333     0.950000000000     0.633566666667     0          
O        O      0.333333333333     0.850000000000     0.382566666667     0          
T        Si     0.614266666667     0.850000000000     0.366433333333     0          
T        Si     0.385733333333     0.850000000000     0.366433333333     0          
O        O      0.396666666667     0.900000000000     0.333333333333     0          
O        O      0.603333333333     0.800000000000     0.333333333333     0          
O        O      0.500000000000     0.850000000000     0.784100000000     0          
O        O      0.436666666667     0.800000000000     0.833333333333     0          
O        O      0.416666666667     0.850000000000     0.750000000000     0          
T        Si     0.447600000000     0.850000000000     0.800233333333     0          
O        O      0.563333333333     0.900000000000     0.833333333333     0          
O        O      0.583333333333     0.850000000000     0.750000000000     0          
T        Si     0.552400000000     0.850000000000     0.800233333333     0          
O        O      0.500000000000     0.950000000000     0.882566666667     0          
O        O      0.416666666667     0.950000000000     0.916666666667     0          
T        Si     0.447600000000     0.950000000000     0.866433333333     0          
O        O      0.583333333333     0.950000000000     0.916666666667     0          
T        Si     0.552400000000     0.950000000000     0.866433333333     0          
O        O      0.563333333333     0.800000000000     0.833333333333     0          
O        O      0.436666666667     0.900000000000     0.833333333333     0          
O        O      0.333333333333     0.950000000000     0.950766666667     0          
O        O      0.603333333333     0.900000000000     0.666666666667     0          
T        Si     0.614266666667     0.950000000000     0.966900000000     0          
O        O      0.396666666667     0.800000000000     0.666666666667     0          
T        Si     0.385733333333     0.950000000000     0.966900000000     0          
O        O      0.333333333333     0.850000000000     0.715900000000     0          
T        Si     0.614266666667     0.850000000000     0.699766666667     0          
T        Si     0.385733333333     0.850000000000     0.699766666667     0          
O        O      0.396666666667     0.900000000000     0.666666666667     0          
O        O      0.603333333333     0.800000000000     0.666666666667     0          
O        O      0.833333333333     0.050000000000     0.117433333333     0          
O        O      0.770000000000     0.000000000000     0.166666666667     0          
O        O      0.750000000000     0.050000000000     0.083333333333     0          
T        Si     0.780933333333     0.050000000000     0.133566666667     0          
O        O      0.896666666667     0.100000000000     0.166666666667     0          
O        O      0.916666666667     0.050000000000     0.083333333333     0          
T        Si     0.885733333333     0.050000000000     0.133566666667     0          
O        O      0.833333333333     0.150000000000     0.215900000000     0          
O        O      0.750000000000     0.150000000000     0.250000000000     0          
T        Si     0.780933333333     0.150000000000     0.199766666667     0          
O        O      0.916666666667     0.150000000000     0.250000000000     0          
T        Si     0.885733333333     0.150000000000     0.199766666667     0          
O        O      0.896666666667     0.000000000000     0.166666666667     0          
O        O      0.770000000000     0.100000000000     0.166666666667     0          
O        O      0.666666666667     0.150000000000     0.284100000000     0          
O        O      0.936666666667     0.100000000000     0.000000000000     0          
T        Si     0.947600000000     0.150000000000     0.300233333333     0          
O        O      0.730000000000     0.000000000000     0.000000000000     0          
T        Si     0.719066666667     0.150000000000     0.300233333333     0          
O        O      0.666666666667     0.050000000000     0.049233333333     0          
T        Si     0.947600000000     0.050000000000     0.033100000000     0          
T        Si     0.719066666667     0.050000000000     0.033100000000     0          
O        O      0.730000000000     0.100000000000     0.000000000000     0          
O        O      0.936666666667     0.000000000000     0.000000000000     0          
O        O      0.833333333333     0.050000000000     0.450766666667     0          
O        O      0.770000000000     0.000000000000     0.500000000000     0          
O        O      0.750000000000     0.050000000000     0.416666666667     0          
T        Si     0.780933333333     0.050000000000     0.466900000000     0          
O        O      0.896666666667     0.100000000000     0.500000000000     0          
O        O      0.916666666667     0.050000000000     0.416666666667     0          
T        Si     0.885733333333     0.050000000000     0.466900000000     0          
O        O      0.833333333333     0.150000000000     0.549233333333     0          
O        O      0.750000000000     0.150000000000     0.583333333333     0          
T        Si     0.780933333333     0.150000000000     0.533100000000     0          
O        O      0.916666666667     0.150000000000     0.583333333333     0          
T        Si     0.885733333333     0.150000000000     0.533100000000     0          
O        O      0.896666666667     0.000000000000     0.500000000000     0          
O        O      0.770000000000     0.100000000000     0.500000000000     0          
O        O      0.666666666667     0.150000000000     0.617433333333     0          
O        O      0.936666666667     0.100000000000     0.333333333333     0          
T        Si     0.947600000000     0.150000000000     0.633566666667     0          
O        O      0.730000000000     0.000000000000     0.333333333333     0          
T        Si     0.719066666667     0.150000000000     0.633566666667     0          
O        O      0.666666666667     0.050000000000     0.382566666667     0          
T        Si     0.947600000000     0.050000000000     0.366433333333     0          
T        Si     0.719066666667     0.050000000000     0.366433333333     0          
O        O      0.730000000000     0.100000000000     0.333333333333     0          
O        O      0.936666666667     0.000000000000     0.333333333333     0          
O        O      0.833333333333     0.050000000000     0.784100000000     0          
O        O      0.770000000000     0.000000000000     0.833333333333     0          
O        O      0.750000000000     0.050000000000     0.750000000000     0          
T        Si     0.780933333333     0.050000000000     0.800233333333     0          
O        O      0.896666666667     0.100000000000     0.833333333333     0          
O        O      0.916666666667     0.050000000000     0.750000000000     0          
T        Si     0.885733333333     0.050000000000     0.800233333333     0          
O        O      0.833333333333     0.150000000000     0.882566666667     0          
O        O      0.750000000000     0.150000000000     0.916666666667     0          
T        Si     0.780933333333     0.150000000000     0.866433333333     0          
O        O      0.916666666667     0.150000000000     0.916666666667     0          
T        Si     0.885733333333     0.150000000000     0.866433333333     0          
O        O      0.896666666667     0.000000000000     0.833333333333     0          
O        O      0.770000000000     0.100000000000     0.833333333333     0          
O        O      0.666666666667     0.150000000000     0.950766666667     0          
O        O      0.936666666667     0.100000000000     0.666666666667     0          
T        Si     0.947600000000     0.150000000000     0.966900000000     0          
O        O      0.730000000000     0.000000000000     0.666666666667     0          
T        Si     0.719066666667     0.150000000000     0.966900000000     0          
O        O      0.666666666667     0.050000000000     0.715900000000     0          
T        Si     0.947600000000     0.050000000000     0.699766666667     0          
T        Si     0.719066666667     0.050000000000     0.699766666667     0          
O        O      0.730000000000     0.100000000000     0.666666666667     0          
O        O      0.936666666667     0.000000000000     0.666666666667     0          
O        O      0.833333333333     0.250000000000     0.117433333333     0          
O        O      0.770000000000     0.200000000000     0.166666666667     0          
O        O      0.750000000000     0.250000000000     0.083333333333     0          
T        Si     0.780933333333     0.250000000000     0.133566666667     0          
O        O      0.896666666667     0.300000000000     0.166666666667     0          
O        O      0.916666666667     0.250000000000     0.083333333333     0          
T        Si     0.885733333333     0.250000000000     0.133566666667     0          
O        O      0.833333333333     0.350000000000     0.215900000000     0          
O        O      0.750000000000     0.350000000000     0.250000000000     0          
T        Si     0.780933333333     0.350000000000     0.199766666667     0          
O        O      0.916666666667     0.350000000000     0.250000000000     0          
T        Si     0.885733333333     0.350000000000     0.199766666667     0          
O        O      0.896666666667     0.200000000000     0.166666666667     0          
O        O      0.770000000000     0.300000000000     0.166666666667     0          
O        O      0.666666666667     0.350000000000     0.284100000000     0          
O        O      0.936666666667     0.300000000000     0.000000000000     0          
T        Si     0.947600000000     0.350000000000     0.300233333333     0          
O        O      0.730000000000     0.200000000000     0.000000000000     0          
T        Si     0.719066666667     0.350000000000     0.300233333333     0          
O        O      0.666666666667     0.250000000000     0.049233333333     0          
T        Si     0.947600000000     0.250000000000     0.033100000000     0          
T        Si     0.719066666667     0.250000000000     0.033100000000     0          
O        O      0.730000000000     0.300000000000     0.000000000000     0          
O        O      0.936666666667     0.200000000000     0.000000000000     0          
O        O      0.833333333333     0.250000000000     0.450766666667     0          
O        O      0.770000000000     0.200000000000     0.500000000000     0          
O        O      0.750000000000     0.250000000000     0.416666666667     0          
T        Si     0.780933333333     0.250000000000     0.466900000000     0          
O        O      0.896666666667     0.300000000000     0.500000000000     0          
O        O      0.916666666667     0.250000000000     0.416666666667     0          
T        Si     0.885733333333     0.250000000000     0.466900000000     0          
O        O      0.833333333333     0.350000000000     0.549233333333     0          
O        O      0.750000000000     0.350000000000     0.583333333333     0          
T        Si     0.780933333333     0.350000000000     0.533100000000     0          
O        O      0.916666666667     0.350000000000     0.583333333333     0          
T        Si     0.885733333333     0.350000000000     0.533100000000     0          
O        O      0.896666666667     0.200000000000     0.500000000000     0          
O        O      0.770000000000     0.300000000000     0.500000000000     0          
O        O      0.666666666667     0.350000000000     0.617433333333     0          
O        O      0.936666666667     0.300000000000     0.333333333333     0          
T        Si     0.947600000000     0.350000000000     0.633566666667     0          
O        O      0.730000000000     0.200000000000     0.333333333333     0          
T        Si     0.719066666667     0.350000000000     0.633566666667     0          
O        O      0.666666666667     0.250000000000     0.382566666667     0          
T        Si     0.947600000000     0.250000000000     0.366433333333     0          
T        Si     0.719066666667     0.250000000000     0.366433333333     0          
O        O      0.730000000000     0.300000000000     0.333333333333     0          
O        O      0.936666666667     0.200000000000     0.333333333333     0          
O        O      0.833333333333     0.250000000000     0.784100000000     0          
O        O      0.770000000000     0.200000000000     0.833333333333     0          
O        O      0.750000000000     0.250000000000     0.750000000000     0          
T        Si     0.780933333333     0.250000000000     0.800233333333     0          
O        O      0.896666666667     0.300000000000     0.833333333333     0          
O        O      0.916666666667     0.250000000000     0.750000000000     0          
T        Si     0.885733333333     0.250000000000     0.800233333333     0          
O        O      0.833333333333     0.350000000000     0.882566666667     0          
O        O      0.750000000000     0.350000000000     0.916666666667     0          
T        Si     0.780933333333     0.350000000000     0.866433333333     0          
O        O      0.916666666667     0.350000000000     0.916666666667     0          
T        Si     0.885733333333     0.350000000000     0.866433333333     0          
O        O      0.896666666667     0.200000000000     0.833333333333     0          
O        O      0.770000000000     0.300000000000     0.833333333333     0          
O        O      0.666666666667     0.350000000000     0.950766666667     0          
O        O      0.936666666667     0.300000000000     0.666666666667     0          
T        Si     0.947600000000     0.350000000000     0.966900000000     0          
O        O      0.730000000000     0.200000000000     0.666666666667     0          
T        Si     0.719066666667     0.350000000000     0.966900000000     0          
O        O      0.666666666667     0.250000000000     0.715900000000     0          
T        Si     0.947600000000     0.250000000000     0.699766666667     0          
T        Si     0.719066666667     0.250000000000     0.699766666667     0          
O        O      0.730000000000     0.300000000000     0.666666666667     0          
O        O      0.936666666667     0.200000000000     0.666666666667     0          
O        O      0.833333333333     0.450000000000     0.117433333333     0          
O        O      0.770000000000     0.400000000000     0.166666666667     0          
O        O      0.750000000000     0.450000000000     0.083333333333     0          
T        Si     0.780933333333     0.450000000000     0.133566666667     0          
O        O      0.896666666667     0.500000000000     0.166666666667     0          
O        O      0.916666666667     0.450000000000     0.083333333333     0          
T        Si     0.885733333333     0.450000000000     0.133566666667     0          
O        O      0.833333333333     0.550000000000     0.215900000000     0          
O        O      0.750000000000     0.550000000000     0.250000000000     0          
T        Si     0.780933333333     0.550000000000     0.199766666667     0          
O        O      0.916666666667     0.550000000000     0.250000000000     0          
T        Si     0.885733333333     0.550000000000     0.199766666667     0          
O        O      0.896666666667     0.400000000000     0.166666666667     0          
O        O      0.770000000000     0.500000000000     0.166666666667     0          
O        O      0.666666666667     0.550000000000     0.284100000000     0          
O        O      0.936666666667     0.500000000000     0.000000000000     0          
T        Si     0.947600000000     0.550000000000     0.300233333333     0          
O        O      0.730000000000     0.400000000000     0.000000000000     0          
T        Si     0.719066666667     0.550000000000     0.300233333333     0          
O        O      0.666666666667     0.450000000000     0.049233333333     0          
T        Si     0.947600000000     0.450000000000     0.033100000000     0          
T        Si     0.719066666667     0.450000000000     0.033100000000     0          
O        O      0.730000000000     0.500000000000     0.000000000000     0          
O        O      0.936666666667     0.400000000000     0.000000000000     0          
O        O      0.833333333333     0.450000000000     0.450766666667     0          
O        O      0.770000000000     0.400000000000     0.500000000000     0          
O        O      0.750000000000     0.450000000000     0.416666666667     0          
T        Si     0.780933333333     0.450000000000     0.466900000000     0          
O        O      0.896666666667     0.500000000000     0.500000000000     0          
O        O      0.916666666667     0.450000000000     0.416666666667     0          
T        Si     0.885733333333     0.450000000000     0.466900000000     0          
O        O      0.833333333333     0.550000000000     0.549233333333     0          
O        O      0.750000000000     0.550000000000     0.583333333333     0          
T        Si     0.780933333333     0.550000000000     0.533100000000     0          
O        O      0.916666666667     0.550000000000     0.583333333333     0          
T        Si     0.885733333333     0.550000000000     0.533100000000     0          
O        O      0.896666666667     0.400000000000     0.500000000000     0          
O        O      0.770000000000     0.500000000000     0.500000000000     0          
O        O      0.666666666667     0.550000000000     0.617433333333     0          
O        O      0.936666666667     0.500000000000     0.333333333333     0          
T        Si     0.947600000000     0.550000000000     0.633566666667     0          
O        O      0.730000000000     0.400000000000     0.333333333333     0          
T        Si     0.719066666667     0.550000000000     0.633566666667     0          
O        O      0.666666666667     0.450000000000     0.382566666667     0          
T        Si     0.947600000000     0.450000000000     0.366433333333     0          
T        Si     0.719066666667     0.450000000000     0.366433333333     0          
O        O      0.730000000000     0.500000000000     0.333333333333     0          
O        O      0.936666666667     0.400000000000     0.333333333333     0          
O        O      0.833333333333     0.450000000000     0.784100000000     0          
O        O      0.770000000000     0.400000000000     0.833333333333     0          
O        O      0.750000000000     0.450000000000     0.750000000000     0          
T        Si     0.780933333333     0.450000000000     0.800233333333     0          
O        O      0.896666666667     0.500000000000     0.833333333333     0          
O        O      0.916666666667     0.450000000000     0.750000000000     0          
T        Si     0.885733333333     0.450000000000     0.800233333333     0          
O        O      0.833333333333     0.550000000000     0.882566666667     0          
O        O      0.750000000000     0.550000000000     0.916666666667     0          
T        Si     0.780933333333     0.550000000000     0.866433333333     0          
O        O      0.916666666667     0.550000000000     0.916666666667     0          
T        Si     0.885733333333     0.550000000000     0.866433333333     0          
O        O      0.896666666667     0.400000000000     0.833333333333     0          
O        O      0.770000000000     0.500000000000     0.833333333333     0          
O        O      0.666666666667     0.550000000000     0.950766666667     0          
O        O      0.936666666667     0.500000000000     0.666666666667     0          
T        Si     0.947600000000     0.550000000000     0.966900000000     0          
O        O      0.730000000000     0.400000000000     0.666666666667     0          
T        Si     0.719066666667     0.550000000000     0.966900000000     0          
O        O      0.666666666667     0.450000000000     0.715900000000     0          
T        Si     0.947600000000     0.450000000000     0.699766666667     0          
T        Si     0.719066666667     0.450000000000     0.699766666667     0          
O        O      0.730000000000     0.500000000000     0.666666666667     0          
O        O      0.936666666667     0.400000000000     0.666666666667     0          
O        O      0.833333333333     0.650000000000     0.117433333333     0          
O        O      0.770000000000     0.600000000000     0.166666666667     0          
O        O      0.750000000000     0.650000000000     0.083333333333     0          
T        Si     0.780933333333     0.650000000000     0.133566666667     0          
O        O      0.896666666667     0.700000000000     0.166666666667     0          
O        O      0.916666666667     0.650000000000     0.083333333333     0          
T        Si     0.885733333333     0.650000000000     0.133566666667     0          
O        O      0.833333333333     0.750000000000     0.215900000000     0          
O        O      0.750000000000     0.750000000000     0.250000000000     0          
T        Si     0.780933333333     0.750000000000     0.199766666667     0          
O        O      0.916666666667     0.750000000000     0.250000000000     0          
T        Si     0.885733333333     0.750000000000     0.199766666667     0          
O        O      0.896666666667     0.600000000000     0.166666666667     0          
O        O      0.770000000000     0.700000000000     0.166666666667     0          
O        O      0.666666666667     0.750000000000     0.284100000000     0          
O        O      0.936666666667     0.700000000000     0.000000000000     0          
T        Si     0.947600000000     0.750000000000     0.300233333333     0          
O        O      0.730000000000     0.600000000000     0.000000000000     0          
T        Si     0.719066666667     0.750000000000     0.300233333333     0          
O        O      0.666666666667     0.650000000000     0.049233333333     0          
T        Si     0.947600000000     0.650000000000     0.033100000000     0          
T        Si     0.719066666667     0.650000000000     0.033100000000     0          
O        O      0.730000000000     0.700000000000     0.000000000000     0          
O        O      0.936666666667     0.600000000000     0.000000000000     0          
O        O      0.833333333333     0.650000000000     0.450766666667     0          
O        O      0.770000000000     0.600000000000     0.500000000000     0          
O        O      0.750000000000     0.650000000000     0.416666666667     0          
T        Si     0.780933333333     0.650000000000     0.466900000000     0          
O        O      0.896666666667     0.700000000000     0.500000000000     0          
O        O      0.916666666667     0.650000000000     0.416666666667     0          
T        Si     0.885733333333     0.650000000000     0.466900000000     0          
O        O      0.833333333333     0.750000000000     0.549233333333     0          
O        O      0.750000000000     0.750000000000     0.583333333333     0          
T        Si     0.780933333333     0.750000000000     0.533100000000     0          
O        O      0.916666666667     0.750000000000     0.583333333333     0          
T        Si     0.885733333333     0.750000000000     0.533100000000     0          
O        O      0.896666666667     0.600000000000     0.500000000000     0          
O        O      0.770000000000     0.700000000000     0.500000000000     0          
O        O      0.666666666667     0.750000000000     0.617433333333     0          
O        O      0.936666666667     0.700000000000     0.333333333333     0          
T        Si     0.947600000000     0.750000000000     0.633566666667     0          
O        O      0.730000000000     0.600000000000     0.333333333333     0          
T        Si     0.719066666667     0.750000000000     0.633566666667     0          
O        O      0.666666666667     0.650000000000     0.382566666667     0          
T        Si     0.947600000000     0.650000000000     0.366433333333     0          
T        Si     0.719066666667     0.650000000000     0.366433333333     0          
O        O      0.730000000000     0.700000000000     0.333333333333     0          
O        O      0.936666666667     0.600000000000     0.333333333333     0          
O        O      0.833333333333     0.650000000000     0.784100000000     0          
O        O      0.770000000000     0.600000000000     0.833333333333     0          
O        O      0.750000000000     0.650000000000     0.750000000000     0          
T        Si     0.780933333333     0.650000000000     0.800233333333     0          
O        O      0.896666666667     0.700000000000     0.833333333333     0          
O        O      0.916666666667     0.650000000000     0.750000000000     0          
T        Si     0.885733333333     0.650000000000     0.800233333333     0          
O        O      0.833333333333     0.750000000000     0.882566666667     0          
O        O      0.750000000000     0.750000000000     0.916666666667     0          
T        Si     0.780933333333     0.750000000000     0.866433333333     0          
O        O      0.916666666667     0.750000000000     0.916666666667     0          
T        Si     0.885733333333     0.750000000000     0.866433333333     0          
O        O      0.896666666667     0.600000000000     0.833333333333     0          
O        O      0.770000000000     0.700000000000     0.833333333333     0          
O        O      0.666666666667     0.750000000000     0.950766666667     0          
O        O      0.936666666667     0.700000000000     0.666666666667     0          
T        Si     0.947600000000     0.750000000000     0.966900000000     0          
O        O      0.730000000000     0.600000000000     0.666666666667     0          
T        Si     0.719066666667     0.750000000000     0.966900000000     0          
O        O      0.666666666667     0.650000000000     0.715900000000     0          
T        Si     0.947600000000     0.650000000000     0.699766666667     0          
T        Si     0.719066666667     0.650000000000     0.699766666667     0          
O        O      0.730000000000     0.700000000000     0.666666666667     0          
O        O      0.936666666667     0.600000000000     0.666666666667     0          
O        O      0.833333333333     0.850000000000     0.117433333333     0          
O        O      0.770000000000     0.800000000000     0.166666666667     0          
O        O      0.750000000000     0.850000000000     0.083333333333     0          
T        Si     0.780933333333     0.850000000000     0.133566666667     0          
O        O      0.896666666667     0.900000000000     0.166666666667     0          
O        O      0.916666666667     0.850000000000     0.083333333333     0          
T        Si     0.885733333333     0.850000000000     0.133566666667     0          
O        O      0.833333333333     0.950000000000     0.215900000000     0          
O        O      0.750000000000     0.950000000000     0.250000000000     0          
T        Si     0.780933333333     0.950000000000     0.199766666667     0          
O        O      0.916666666667     0.950000000000     0.250000000000     0          
T        Si     0.885733333333     0.950000000000     0.199766666667     0          
O        O      0.896666666667     0.800000000000     0.166666666667     0          
O        O      0.770000000000     0.900000000000     0.166666666667     0          
O        O      0.666666666667     0.950000000000     0.284100000000     0          
O        O      0.936666666667     0.900000000000     0.000000000000     0          
T        Si     0.947600000000     0.950000000000     0.300233333333     0          
O        O      0.730000000000     0.800000000000     0.000000000000     0          
T        Si     0.719066666667     0.950000000000     0.300233333333     0          
O        O      0.666666666667     0.850000000000     0.049233333333     0          
T        Si     0.947600000000     0.850000000000     0.033100000000     0          
T        Si     0.719066666667     0.850000000000     0.033100000000     0          
O        O      0.730000000000     0.900000000000     0.000000000000     0          
O        O      0.936666666667     0.800000000000     0.000000000000     0          
O        O      0.833333333333     0.850000000000     0.450766666667     0          
O        O      0.770000000000     0.800000000000     0.500000000000     0          
O        O      0.750000000000     0.850000000000     0.416666666667     0          
T        Si     0.780933333333     0.850000000000     0.466900000000     0          
O        O      0.896666666667     0.900000000000     0.500000000000     0          
O        O      0.916666666667     0.850000000000     0.416666666667     0          
T        Si     0.885733333333     0.850000000000     0.466900000000     0          
O        O      0.833333333333     0.950000000000     0.549233333333     0          
O        O      0.750000000000     0.950000000000     0.583333333333     0          
T        Si     0.780933333333     0.950000000000     0.533100000000     0          
O        O      0.916666666667     0.950000000000     0.583333333333     0          
T        Si     0.885733333333     0.950000000000     0.533100000000     0          
O        O      0.896666666667     0.800000000000     0.500000000000     0          
O        O      0.770000000000     0.900000000000     0.500000000000     0          
O        O      0.666666666667     0.950000000000     0.617433333333     0          
O        O      0.936666666667     0.900000000000     0.333333333333     0          
T        Si     0.947600000000     0.950000000000     0.633566666667     0          
O        O      0.730000000000     0.800000000000     0.333333333333     0          
T        Si     0.719066666667     0.950000000000     0.633566666667     0          
O        O      0.666666666667     0.850000000000     0.382566666667     0          
T        Si     0.947600000000     0.850000000000     0.366433333333     0          
T        Si     0.719066666667     0.850000000000     0.366433333333     0          
O        O      0.730000000000     0.900000000000     0.333333333333     0          
O        O      0.936666666667     0.800000000000     0.333333333333     0          
O        O      0.833333333333     0.850000000000     0.784100000000     0          
O        O      0.770000000000     0.800000000000     0.833333333333     0          
O        O      0.750000000000     0.850000000000     0.750000000000     0          
T        Si     0.780933333333     0.850000000000     0.800233333333     0          
O        O      0.896666666667     0.900000000000     0.833333333333     0          
O        O      0.916666666667     0.850000000000     0.750000000000     0          
T        Si     0.885733333333     0.850000000000     0.800233333333     0          
O        O      0.833333333333     0.950000000000     0.882566666667     0          
O        O      0.750000000000     0.950000000000     0.916666666667     0          
T        Si     0.780933333333     0.950000000000     0.866433333333     0          
O        O      0.916666666667     0.950000000000     0.916666666667     0          
T        Si     0.885733333333     0.950000000000     0.866433333333     0          
O        O      0.896666666667     0.800000000000     0.833333333333     0          
O        O      0.770000000000     0.900000000000     0.833333333333     0          
O        O      0.666666666667     0.950000000000     0.950766666667     0          
O        O      0.936666666667     0.900000000000     0.666666666667     0          
T        Si     0.947600000000     0.950000000000     0.966900000000     0          
O        O      0.730000000000     0.800000000000     0.666666666667     0          
T        Si     0.719066666667     0.950000000000     0.966900000000     0          
O        O      0.666666666667     0.850000000000     0.715900000000     0          
T        Si     0.947600000000     0.850000000000     0.699766666667     0          
T        Si     0.719066666667     0.850000000000     0.699766666667     0          
O        O      0.730000000000     0.900000000000     0.666666666667     0          
O        O      0.936666666667     0.800000000000     0.666666666667     0          


