data_zeolite

_audit_creation_method RASPA-1.0
_audit_creation_date 2021-1-11
_audit_author_name ''

_cell_length_a    41.691
_cell_length_b    38.139
_cell_length_c    38.133
_cell_angle_alpha 90
_cell_angle_beta  90
_cell_angle_gamma 90
_cell_volume      60633.5

_symmetry_cell_setting          orthorhombic
_symmetry_space_group_name_Hall 'P 1'
_symmetry_space_group_name_H-M  'P 1'
_symmetry_Int_Tables_number     1

_symmetry_equiv_pos_as_xyz 'x,y,z'

loop_
_atom_site_label
_atom_site_type_symbol
_atom_site_fract_x
_atom_site_fract_y
_atom_site_fract_z
_atom_site_charge
O        O      0.409900000000     0.270766666667     0.046066666667     0          
O        O      0.379400000000     0.309866666667     0.000000000000     0          
O        O      0.347700000000     0.279933333333     0.051566666667     0          
O        O      0.386400000000     0.332433333333     0.064700000000     0          
O        O      0.426400000000     0.222666666667     0.000000000000     0          
O        O      0.388000000000     0.206533333333     0.052266666667     0          
O        O      0.448700000000     0.219166666667     0.064366666667     0          
O        O      0.357500000000     0.176533333333     0.000000000000     0          
O        O      0.325800000000     0.215633333333     0.045100000000     0          
O        O      0.348500000000     0.154033333333     0.064166666667     0          
O        O      0.308400000000     0.264266666667     0.000000000000     0          
O        O      0.287000000000     0.266600000000     0.064633333333     0          
O        O      0.397100000000     0.261866666667     0.166666666667     0          
O        O      0.340600000000     0.291966666667     0.166666666667     0          
O        O      0.389100000000     0.320600000000     0.132233333333     0          
O        O      0.395500000000     0.193200000000     0.166666666667     0          
O        O      0.441000000000     0.226866666667     0.132166666667     0          
O        O      0.339000000000     0.223333333333     0.166666666667     0          
O        O      0.347200000000     0.164700000000     0.132166666667     0          
O        O      0.295000000000     0.258333333333     0.132266666667     0          
O        O      0.323300000000     0.106700000000     0.105900000000     0          
O        O      0.385600000000     0.116800000000     0.105833333333     0          
O        O      0.342600000000     0.026000000000     0.106966666667     0          
O        O      0.401700000000     0.050233333333     0.107933333333     0          
O        O      0.239400000000     0.280200000000     0.107833333333     0          
O        O      0.289800000000     0.321700000000     0.106100000000     0          
O        O      0.454500000000     0.164633333333     0.106800000000     0          
O        O      0.498300000000     0.214200000000     0.106866666667     0          
O        O      0.293400000000     0.109333333333     0.166666666667     0          
O        O      0.287700000000     0.053900000000     0.126300000000     0          
O        O      0.315400000000     0.007166666667     0.166666666667     0          
O        O      0.395200000000     0.085833333333     0.166666666667     0          
O        O      0.443800000000     0.098866666667     0.124700000000     0          
O        O      0.476600000000     0.140066666667     0.166666666667     0          
T        Si     0.381000000000     0.298266666667     0.040566666667     0          
T        Si     0.418300000000     0.229933333333     0.040633333333     0          
T        Si     0.354900000000     0.188233333333     0.040466666667     0          
T        Si     0.317200000000     0.256533333333     0.040333333333     0          
T        Si     0.378700000000     0.298966666667     0.166666666667     0          
T        Si     0.418700000000     0.226966666667     0.166666666667     0          
T        Si     0.357400000000     0.186233333333     0.166666666667     0          
T        Si     0.317400000000     0.258233333333     0.166666666667     0          
T        Si     0.351200000000     0.135566666667     0.102000000000     0          
T        Si     0.379800000000     0.015800000000     0.102800000000     0          
T        Si     0.277700000000     0.281766666667     0.102700000000     0          
T        Si     0.460600000000     0.206100000000     0.102366666667     0          
T        Si     0.291100000000     0.095966666667     0.126700000000     0          
T        Si     0.309000000000     0.018700000000     0.126633333333     0          
T        Si     0.406500000000     0.087833333333     0.126366666667     0          
T        Si     0.469100000000     0.130733333333     0.126333333333     0          
O        O      0.590100000000     0.062566666667     0.046066666667     0          
O        O      0.620600000000     0.023466666667     0.000000000000     0          
O        O      0.652300000000     0.053400000000     0.051566666667     0          
O        O      0.613600000000     0.000900000000     0.064700000000     0          
O        O      0.573600000000     0.110666666667     0.000000000000     0          
O        O      0.612000000000     0.126800000000     0.052266666667     0          
O        O      0.551300000000     0.114166666667     0.064366666667     0          
O        O      0.642500000000     0.156800000000     0.000000000000     0          
O        O      0.674200000000     0.117700000000     0.045100000000     0          
O        O      0.651500000000     0.179300000000     0.064166666667     0          
O        O      0.691600000000     0.069066666667     0.000000000000     0          
O        O      0.713000000000     0.066733333333     0.064633333333     0          
O        O      0.602900000000     0.071466666667     0.166666666667     0          
O        O      0.659400000000     0.041366666667     0.166666666667     0          
O        O      0.610900000000     0.012733333333     0.132233333333     0          
O        O      0.604500000000     0.140133333333     0.166666666667     0          
O        O      0.559000000000     0.106466666667     0.132166666667     0          
O        O      0.661000000000     0.110000000000     0.166666666667     0          
O        O      0.652800000000     0.168633333333     0.132166666667     0          
O        O      0.705000000000     0.075000000000     0.132266666667     0          
O        O      0.676700000000     0.226633333333     0.105900000000     0          
O        O      0.614400000000     0.216533333333     0.105833333333     0          
O        O      0.657400000000     0.307333333333     0.106966666667     0          
O        O      0.598300000000     0.283100000000     0.107933333333     0          
O        O      0.760600000000     0.053133333333     0.107833333333     0          
O        O      0.710200000000     0.011633333333     0.106100000000     0          
O        O      0.545500000000     0.168700000000     0.106800000000     0          
O        O      0.501700000000     0.119133333333     0.106866666667     0          
O        O      0.706600000000     0.224000000000     0.166666666667     0          
O        O      0.712300000000     0.279433333333     0.126300000000     0          
O        O      0.684600000000     0.326166666667     0.166666666667     0          
O        O      0.604800000000     0.247500000000     0.166666666667     0          
O        O      0.556200000000     0.234466666667     0.124700000000     0          
O        O      0.523400000000     0.193266666667     0.166666666667     0          
T        Si     0.619000000000     0.035066666667     0.040566666667     0          
T        Si     0.581700000000     0.103400000000     0.040633333333     0          
T        Si     0.645100000000     0.145100000000     0.040466666667     0          
T        Si     0.682800000000     0.076800000000     0.040333333333     0          
T        Si     0.621300000000     0.034366666667     0.166666666667     0          
T        Si     0.581300000000     0.106366666667     0.166666666667     0          
T        Si     0.642600000000     0.147100000000     0.166666666667     0          
T        Si     0.682600000000     0.075100000000     0.166666666667     0          
T        Si     0.648800000000     0.197766666667     0.102000000000     0          
T        Si     0.620200000000     0.317533333333     0.102800000000     0          
T        Si     0.722300000000     0.051566666667     0.102700000000     0          
T        Si     0.539400000000     0.127233333333     0.102366666667     0          
T        Si     0.708900000000     0.237366666667     0.126700000000     0          
T        Si     0.691000000000     0.314633333333     0.126633333333     0          
T        Si     0.593500000000     0.245500000000     0.126366666667     0          
T        Si     0.530900000000     0.202600000000     0.126333333333     0          
O        O      0.909900000000     0.229233333333     0.287266666667     0          
O        O      0.879400000000     0.190133333333     0.000000000000     0          
O        O      0.847700000000     0.220066666667     0.281766666667     0          
O        O      0.886400000000     0.167566666667     0.268633333333     0          
O        O      0.926400000000     0.277333333333     0.000000000000     0          
O        O      0.888000000000     0.293466666667     0.281066666667     0          
O        O      0.948700000000     0.280833333333     0.268966666667     0          
O        O      0.857500000000     0.323466666667     0.000000000000     0          
O        O      0.825800000000     0.284366666667     0.288233333333     0          
O        O      0.848500000000     0.012633333333     0.269166666667     0          
O        O      0.808400000000     0.235733333333     0.000000000000     0          
O        O      0.787000000000     0.233400000000     0.268700000000     0          
O        O      0.897100000000     0.238133333333     0.166666666667     0          
O        O      0.840600000000     0.208033333333     0.166666666667     0          
O        O      0.889100000000     0.179400000000     0.201100000000     0          
O        O      0.895500000000     0.306800000000     0.166666666667     0          
O        O      0.941000000000     0.273133333333     0.201166666667     0          
O        O      0.839000000000     0.276666666667     0.166666666667     0          
O        O      0.847200000000     0.001966666667     0.201166666667     0          
O        O      0.795000000000     0.241666666667     0.201066666667     0          
O        O      0.823300000000     0.059966666667     0.227433333333     0          
O        O      0.885600000000     0.049866666667     0.227500000000     0          
O        O      0.842600000000     0.140666666667     0.226366666667     0          
O        O      0.901700000000     0.116433333333     0.225400000000     0          
O        O      0.739400000000     0.219800000000     0.225500000000     0          
O        O      0.789800000000     0.178300000000     0.227233333333     0          
O        O      0.954500000000     0.002033333333     0.226533333333     0          
O        O      0.998300000000     0.285800000000     0.226466666667     0          
O        O      0.793400000000     0.057333333333     0.166666666667     0          
O        O      0.787700000000     0.112766666667     0.207033333333     0          
O        O      0.815400000000     0.159500000000     0.166666666667     0          
O        O      0.895200000000     0.080833333333     0.166666666667     0          
O        O      0.943800000000     0.067800000000     0.208633333333     0          
O        O      0.976600000000     0.026600000000     0.166666666667     0          
T        Si     0.881000000000     0.201733333333     0.292766666667     0          
T        Si     0.918300000000     0.270066666667     0.292700000000     0          
T        Si     0.854900000000     0.311766666667     0.292866666667     0          
T        Si     0.817200000000     0.243466666667     0.293000000000     0          
T        Si     0.878700000000     0.201033333333     0.166666666667     0          
T        Si     0.918700000000     0.273033333333     0.166666666667     0          
T        Si     0.857400000000     0.313766666667     0.166666666667     0          
T        Si     0.817400000000     0.241766666667     0.166666666667     0          
T        Si     0.851200000000     0.031100000000     0.231333333333     0          
T        Si     0.879800000000     0.150866666667     0.230533333333     0          
T        Si     0.777700000000     0.218233333333     0.230633333333     0          
T        Si     0.960600000000     0.293900000000     0.230966666667     0          
T        Si     0.791100000000     0.070700000000     0.206633333333     0          
T        Si     0.809000000000     0.147966666667     0.206700000000     0          
T        Si     0.906500000000     0.078833333333     0.206966666667     0          
T        Si     0.969100000000     0.035933333333     0.207000000000     0          
O        O      0.090100000000     0.104100000000     0.287266666667     0          
O        O      0.120600000000     0.143200000000     0.000000000000     0          
O        O      0.152300000000     0.113266666667     0.281766666667     0          
O        O      0.113600000000     0.165766666667     0.268633333333     0          
O        O      0.073600000000     0.056000000000     0.000000000000     0          
O        O      0.112000000000     0.039866666667     0.281066666667     0          
O        O      0.051300000000     0.052500000000     0.268966666667     0          
O        O      0.142500000000     0.009866666667     0.000000000000     0          
O        O      0.174200000000     0.048966666667     0.288233333333     0          
O        O      0.151500000000     0.320700000000     0.269166666667     0          
O        O      0.191600000000     0.097600000000     0.000000000000     0          
O        O      0.213000000000     0.099933333333     0.268700000000     0          
O        O      0.102900000000     0.095200000000     0.166666666667     0          
O        O      0.159400000000     0.125300000000     0.166666666667     0          
O        O      0.110900000000     0.153933333333     0.201100000000     0          
O        O      0.104500000000     0.026533333333     0.166666666667     0          
O        O      0.059000000000     0.060200000000     0.201166666667     0          
O        O      0.161000000000     0.056666666667     0.166666666667     0          
O        O      0.152800000000     0.331366666667     0.201166666667     0          
O        O      0.205000000000     0.091666666667     0.201066666667     0          
O        O      0.176700000000     0.273366666667     0.227433333333     0          
O        O      0.114400000000     0.283466666667     0.227500000000     0          
O        O      0.157400000000     0.192666666667     0.226366666667     0          
O        O      0.098300000000     0.216900000000     0.225400000000     0          
O        O      0.260600000000     0.113533333333     0.225500000000     0          
O        O      0.210200000000     0.155033333333     0.227233333333     0          
O        O      0.045500000000     0.331300000000     0.226533333333     0          
O        O      0.001700000000     0.047533333333     0.226466666667     0          
O        O      0.206600000000     0.276000000000     0.166666666667     0          
O        O      0.212300000000     0.220566666667     0.207033333333     0          
O        O      0.184600000000     0.173833333333     0.166666666667     0          
O        O      0.104800000000     0.252500000000     0.166666666667     0          
O        O      0.056200000000     0.265533333333     0.208633333333     0          
O        O      0.023400000000     0.306733333333     0.166666666667     0          
T        Si     0.119000000000     0.131600000000     0.292766666667     0          
T        Si     0.081700000000     0.063266666667     0.292700000000     0          
T        Si     0.145100000000     0.021566666667     0.292866666667     0          
T        Si     0.182800000000     0.089866666667     0.293000000000     0          
T        Si     0.121300000000     0.132300000000     0.166666666667     0          
T        Si     0.081300000000     0.060300000000     0.166666666667     0          
T        Si     0.142600000000     0.019566666667     0.166666666667     0          
T        Si     0.182600000000     0.091566666667     0.166666666667     0          
T        Si     0.148800000000     0.302233333333     0.231333333333     0          
T        Si     0.120200000000     0.182466666667     0.230533333333     0          
T        Si     0.222300000000     0.115100000000     0.230633333333     0          
T        Si     0.039400000000     0.039433333333     0.230966666667     0          
T        Si     0.208900000000     0.262633333333     0.206633333333     0          
T        Si     0.191000000000     0.185366666667     0.206700000000     0          
T        Si     0.093500000000     0.254500000000     0.206966666667     0          
T        Si     0.030900000000     0.297400000000     0.207000000000     0          
O        O      0.590100000000     0.062566666667     0.287266666667     0          
O        O      0.652300000000     0.053400000000     0.281766666667     0          
O        O      0.613600000000     0.000900000000     0.268633333333     0          
O        O      0.612000000000     0.126800000000     0.281066666667     0          
O        O      0.551300000000     0.114166666667     0.268966666667     0          
O        O      0.674200000000     0.117700000000     0.288233333333     0          
O        O      0.651500000000     0.179300000000     0.269166666667     0          
O        O      0.713000000000     0.066733333333     0.268700000000     0          
O        O      0.610900000000     0.012733333333     0.201100000000     0          
O        O      0.559000000000     0.106466666667     0.201166666667     0          
O        O      0.652800000000     0.168633333333     0.201166666667     0          
O        O      0.705000000000     0.075000000000     0.201066666667     0          
O        O      0.676700000000     0.226633333333     0.227433333333     0          
O        O      0.614400000000     0.216533333333     0.227500000000     0          
O        O      0.657400000000     0.307333333333     0.226366666667     0          
O        O      0.598300000000     0.283100000000     0.225400000000     0          
O        O      0.760600000000     0.053133333333     0.225500000000     0          
O        O      0.710200000000     0.011633333333     0.227233333333     0          
O        O      0.545500000000     0.168700000000     0.226533333333     0          
O        O      0.501700000000     0.119133333333     0.226466666667     0          
O        O      0.712300000000     0.279433333333     0.207033333333     0          
O        O      0.556200000000     0.234466666667     0.208633333333     0          
T        Si     0.619000000000     0.035066666667     0.292766666667     0          
T        Si     0.581700000000     0.103400000000     0.292700000000     0          
T        Si     0.645100000000     0.145100000000     0.292866666667     0          
T        Si     0.682800000000     0.076800000000     0.293000000000     0          
T        Si     0.648800000000     0.197766666667     0.231333333333     0          
T        Si     0.620200000000     0.317533333333     0.230533333333     0          
T        Si     0.722300000000     0.051566666667     0.230633333333     0          
T        Si     0.539400000000     0.127233333333     0.230966666667     0          
T        Si     0.708900000000     0.237366666667     0.206633333333     0          
T        Si     0.691000000000     0.314633333333     0.206700000000     0          
T        Si     0.593500000000     0.245500000000     0.206966666667     0          
T        Si     0.530900000000     0.202600000000     0.207000000000     0          
O        O      0.409900000000     0.270766666667     0.287266666667     0          
O        O      0.347700000000     0.279933333333     0.281766666667     0          
O        O      0.386400000000     0.332433333333     0.268633333333     0          
O        O      0.388000000000     0.206533333333     0.281066666667     0          
O        O      0.448700000000     0.219166666667     0.268966666667     0          
O        O      0.325800000000     0.215633333333     0.288233333333     0          
O        O      0.348500000000     0.154033333333     0.269166666667     0          
O        O      0.287000000000     0.266600000000     0.268700000000     0          
O        O      0.389100000000     0.320600000000     0.201100000000     0          
O        O      0.441000000000     0.226866666667     0.201166666667     0          
O        O      0.347200000000     0.164700000000     0.201166666667     0          
O        O      0.295000000000     0.258333333333     0.201066666667     0          
O        O      0.323300000000     0.106700000000     0.227433333333     0          
O        O      0.385600000000     0.116800000000     0.227500000000     0          
O        O      0.342600000000     0.026000000000     0.226366666667     0          
O        O      0.401700000000     0.050233333333     0.225400000000     0          
O        O      0.239400000000     0.280200000000     0.225500000000     0          
O        O      0.289800000000     0.321700000000     0.227233333333     0          
O        O      0.454500000000     0.164633333333     0.226533333333     0          
O        O      0.498300000000     0.214200000000     0.226466666667     0          
O        O      0.287700000000     0.053900000000     0.207033333333     0          
O        O      0.443800000000     0.098866666667     0.208633333333     0          
T        Si     0.381000000000     0.298266666667     0.292766666667     0          
T        Si     0.418300000000     0.229933333333     0.292700000000     0          
T        Si     0.354900000000     0.188233333333     0.292866666667     0          
T        Si     0.317200000000     0.256533333333     0.293000000000     0          
T        Si     0.351200000000     0.135566666667     0.231333333333     0          
T        Si     0.379800000000     0.015800000000     0.230533333333     0          
T        Si     0.277700000000     0.281766666667     0.230633333333     0          
T        Si     0.460600000000     0.206100000000     0.230966666667     0          
T        Si     0.291100000000     0.095966666667     0.206633333333     0          
T        Si     0.309000000000     0.018700000000     0.206700000000     0          
T        Si     0.406500000000     0.087833333333     0.206966666667     0          
T        Si     0.469100000000     0.130733333333     0.207000000000     0          
O        O      0.090100000000     0.104100000000     0.046066666667     0          
O        O      0.152300000000     0.113266666667     0.051566666667     0          
O        O      0.113600000000     0.165766666667     0.064700000000     0          
O        O      0.112000000000     0.039866666667     0.052266666667     0          
O        O      0.051300000000     0.052500000000     0.064366666667     0          
O        O      0.174200000000     0.048966666667     0.045100000000     0          
O        O      0.151500000000     0.320700000000     0.064166666667     0          
O        O      0.213000000000     0.099933333333     0.064633333333     0          
O        O      0.110900000000     0.153933333333     0.132233333333     0          
O        O      0.059000000000     0.060200000000     0.132166666667     0          
O        O      0.152800000000     0.331366666667     0.132166666667     0          
O        O      0.205000000000     0.091666666667     0.132266666667     0          
O        O      0.176700000000     0.273366666667     0.105900000000     0          
O        O      0.114400000000     0.283466666667     0.105833333333     0          
O        O      0.157400000000     0.192666666667     0.106966666667     0          
O        O      0.098300000000     0.216900000000     0.107933333333     0          
O        O      0.260600000000     0.113533333333     0.107833333333     0          
O        O      0.210200000000     0.155033333333     0.106100000000     0          
O        O      0.045500000000     0.331300000000     0.106800000000     0          
O        O      0.001700000000     0.047533333333     0.106866666667     0          
O        O      0.212300000000     0.220566666667     0.126300000000     0          
O        O      0.056200000000     0.265533333333     0.124700000000     0          
T        Si     0.119000000000     0.131600000000     0.040566666667     0          
T        Si     0.081700000000     0.063266666667     0.040633333333     0          
T        Si     0.145100000000     0.021566666667     0.040466666667     0          
T        Si     0.182800000000     0.089866666667     0.040333333333     0          
T        Si     0.148800000000     0.302233333333     0.102000000000     0          
T        Si     0.120200000000     0.182466666667     0.102800000000     0          
T        Si     0.222300000000     0.115100000000     0.102700000000     0          
T        Si     0.039400000000     0.039433333333     0.102366666667     0          
T        Si     0.208900000000     0.262633333333     0.126700000000     0          
T        Si     0.191000000000     0.185366666667     0.126633333333     0          
T        Si     0.093500000000     0.254500000000     0.126366666667     0          
T        Si     0.030900000000     0.297400000000     0.126333333333     0          
O        O      0.909900000000     0.229233333333     0.046066666667     0          
O        O      0.847700000000     0.220066666667     0.051566666667     0          
O        O      0.886400000000     0.167566666667     0.064700000000     0          
O        O      0.888000000000     0.293466666667     0.052266666667     0          
O        O      0.948700000000     0.280833333333     0.064366666667     0          
O        O      0.825800000000     0.284366666667     0.045100000000     0          
O        O      0.848500000000     0.012633333333     0.064166666667     0          
O        O      0.787000000000     0.233400000000     0.064633333333     0          
O        O      0.889100000000     0.179400000000     0.132233333333     0          
O        O      0.941000000000     0.273133333333     0.132166666667     0          
O        O      0.847200000000     0.001966666667     0.132166666667     0          
O        O      0.795000000000     0.241666666667     0.132266666667     0          
O        O      0.823300000000     0.059966666667     0.105900000000     0          
O        O      0.885600000000     0.049866666667     0.105833333333     0          
O        O      0.842600000000     0.140666666667     0.106966666667     0          
O        O      0.901700000000     0.116433333333     0.107933333333     0          
O        O      0.739400000000     0.219800000000     0.107833333333     0          
O        O      0.789800000000     0.178300000000     0.106100000000     0          
O        O      0.954500000000     0.002033333333     0.106800000000     0          
O        O      0.998300000000     0.285800000000     0.106866666667     0          
O        O      0.787700000000     0.112766666667     0.126300000000     0          
O        O      0.943800000000     0.067800000000     0.124700000000     0          
T        Si     0.881000000000     0.201733333333     0.040566666667     0          
T        Si     0.918300000000     0.270066666667     0.040633333333     0          
T        Si     0.854900000000     0.311766666667     0.040466666667     0          
T        Si     0.817200000000     0.243466666667     0.040333333333     0          
T        Si     0.851200000000     0.031100000000     0.102000000000     0          
T        Si     0.879800000000     0.150866666667     0.102800000000     0          
T        Si     0.777700000000     0.218233333333     0.102700000000     0          
T        Si     0.960600000000     0.293900000000     0.102366666667     0          
T        Si     0.791100000000     0.070700000000     0.126700000000     0          
T        Si     0.809000000000     0.147966666667     0.126633333333     0          
T        Si     0.906500000000     0.078833333333     0.126366666667     0          
T        Si     0.969100000000     0.035933333333     0.126333333333     0          
O        O      0.409900000000     0.270766666667     0.379400000000     0          
O        O      0.379400000000     0.309866666667     0.333333333333     0          
O        O      0.347700000000     0.279933333333     0.384900000000     0          
O        O      0.386400000000     0.332433333333     0.398033333333     0          
O        O      0.426400000000     0.222666666667     0.333333333333     0          
O        O      0.388000000000     0.206533333333     0.385600000000     0          
O        O      0.448700000000     0.219166666667     0.397700000000     0          
O        O      0.357500000000     0.176533333333     0.333333333333     0          
O        O      0.325800000000     0.215633333333     0.378433333333     0          
O        O      0.348500000000     0.154033333333     0.397500000000     0          
O        O      0.308400000000     0.264266666667     0.333333333333     0          
O        O      0.287000000000     0.266600000000     0.397966666667     0          
O        O      0.397100000000     0.261866666667     0.500000000000     0          
O        O      0.340600000000     0.291966666667     0.500000000000     0          
O        O      0.389100000000     0.320600000000     0.465566666667     0          
O        O      0.395500000000     0.193200000000     0.500000000000     0          
O        O      0.441000000000     0.226866666667     0.465500000000     0          
O        O      0.339000000000     0.223333333333     0.500000000000     0          
O        O      0.347200000000     0.164700000000     0.465500000000     0          
O        O      0.295000000000     0.258333333333     0.465600000000     0          
O        O      0.323300000000     0.106700000000     0.439233333333     0          
O        O      0.385600000000     0.116800000000     0.439166666667     0          
O        O      0.342600000000     0.026000000000     0.440300000000     0          
O        O      0.401700000000     0.050233333333     0.441266666667     0          
O        O      0.239400000000     0.280200000000     0.441166666667     0          
O        O      0.289800000000     0.321700000000     0.439433333333     0          
O        O      0.454500000000     0.164633333333     0.440133333333     0          
O        O      0.498300000000     0.214200000000     0.440200000000     0          
O        O      0.293400000000     0.109333333333     0.500000000000     0          
O        O      0.287700000000     0.053900000000     0.459633333333     0          
O        O      0.315400000000     0.007166666667     0.500000000000     0          
O        O      0.395200000000     0.085833333333     0.500000000000     0          
O        O      0.443800000000     0.098866666667     0.458033333333     0          
O        O      0.476600000000     0.140066666667     0.500000000000     0          
T        Si     0.381000000000     0.298266666667     0.373900000000     0          
T        Si     0.418300000000     0.229933333333     0.373966666667     0          
T        Si     0.354900000000     0.188233333333     0.373800000000     0          
T        Si     0.317200000000     0.256533333333     0.373666666667     0          
T        Si     0.378700000000     0.298966666667     0.500000000000     0          
T        Si     0.418700000000     0.226966666667     0.500000000000     0          
T        Si     0.357400000000     0.186233333333     0.500000000000     0          
T        Si     0.317400000000     0.258233333333     0.500000000000     0          
T        Si     0.351200000000     0.135566666667     0.435333333333     0          
T        Si     0.379800000000     0.015800000000     0.436133333333     0          
T        Si     0.277700000000     0.281766666667     0.436033333333     0          
T        Si     0.460600000000     0.206100000000     0.435700000000     0          
T        Si     0.291100000000     0.095966666667     0.460033333333     0          
T        Si     0.309000000000     0.018700000000     0.459966666667     0          
T        Si     0.406500000000     0.087833333333     0.459700000000     0          
T        Si     0.469100000000     0.130733333333     0.459666666667     0          
O        O      0.590100000000     0.062566666667     0.379400000000     0          
O        O      0.620600000000     0.023466666667     0.333333333333     0          
O        O      0.652300000000     0.053400000000     0.384900000000     0          
O        O      0.613600000000     0.000900000000     0.398033333333     0          
O        O      0.573600000000     0.110666666667     0.333333333333     0          
O        O      0.612000000000     0.126800000000     0.385600000000     0          
O        O      0.551300000000     0.114166666667     0.397700000000     0          
O        O      0.642500000000     0.156800000000     0.333333333333     0          
O        O      0.674200000000     0.117700000000     0.378433333333     0          
O        O      0.651500000000     0.179300000000     0.397500000000     0          
O        O      0.691600000000     0.069066666667     0.333333333333     0          
O        O      0.713000000000     0.066733333333     0.397966666667     0          
O        O      0.602900000000     0.071466666667     0.500000000000     0          
O        O      0.659400000000     0.041366666667     0.500000000000     0          
O        O      0.610900000000     0.012733333333     0.465566666667     0          
O        O      0.604500000000     0.140133333333     0.500000000000     0          
O        O      0.559000000000     0.106466666667     0.465500000000     0          
O        O      0.661000000000     0.110000000000     0.500000000000     0          
O        O      0.652800000000     0.168633333333     0.465500000000     0          
O        O      0.705000000000     0.075000000000     0.465600000000     0          
O        O      0.676700000000     0.226633333333     0.439233333333     0          
O        O      0.614400000000     0.216533333333     0.439166666667     0          
O        O      0.657400000000     0.307333333333     0.440300000000     0          
O        O      0.598300000000     0.283100000000     0.441266666667     0          
O        O      0.760600000000     0.053133333333     0.441166666667     0          
O        O      0.710200000000     0.011633333333     0.439433333333     0          
O        O      0.545500000000     0.168700000000     0.440133333333     0          
O        O      0.501700000000     0.119133333333     0.440200000000     0          
O        O      0.706600000000     0.224000000000     0.500000000000     0          
O        O      0.712300000000     0.279433333333     0.459633333333     0          
O        O      0.684600000000     0.326166666667     0.500000000000     0          
O        O      0.604800000000     0.247500000000     0.500000000000     0          
O        O      0.556200000000     0.234466666667     0.458033333333     0          
O        O      0.523400000000     0.193266666667     0.500000000000     0          
T        Si     0.619000000000     0.035066666667     0.373900000000     0          
T        Si     0.581700000000     0.103400000000     0.373966666667     0          
T        Si     0.645100000000     0.145100000000     0.373800000000     0          
T        Si     0.682800000000     0.076800000000     0.373666666667     0          
T        Si     0.621300000000     0.034366666667     0.500000000000     0          
T        Si     0.581300000000     0.106366666667     0.500000000000     0          
T        Si     0.642600000000     0.147100000000     0.500000000000     0          
T        Si     0.682600000000     0.075100000000     0.500000000000     0          
T        Si     0.648800000000     0.197766666667     0.435333333333     0          
T        Si     0.620200000000     0.317533333333     0.436133333333     0          
T        Si     0.722300000000     0.051566666667     0.436033333333     0          
T        Si     0.539400000000     0.127233333333     0.435700000000     0          
T        Si     0.708900000000     0.237366666667     0.460033333333     0          
T        Si     0.691000000000     0.314633333333     0.459966666667     0          
T        Si     0.593500000000     0.245500000000     0.459700000000     0          
T        Si     0.530900000000     0.202600000000     0.459666666667     0          
O        O      0.909900000000     0.229233333333     0.620600000000     0          
O        O      0.879400000000     0.190133333333     0.333333333333     0          
O        O      0.847700000000     0.220066666667     0.615100000000     0          
O        O      0.886400000000     0.167566666667     0.601966666667     0          
O        O      0.926400000000     0.277333333333     0.333333333333     0          
O        O      0.888000000000     0.293466666667     0.614400000000     0          
O        O      0.948700000000     0.280833333333     0.602300000000     0          
O        O      0.857500000000     0.323466666667     0.333333333333     0          
O        O      0.825800000000     0.284366666667     0.621566666667     0          
O        O      0.848500000000     0.012633333333     0.602500000000     0          
O        O      0.808400000000     0.235733333333     0.333333333333     0          
O        O      0.787000000000     0.233400000000     0.602033333333     0          
O        O      0.897100000000     0.238133333333     0.500000000000     0          
O        O      0.840600000000     0.208033333333     0.500000000000     0          
O        O      0.889100000000     0.179400000000     0.534433333333     0          
O        O      0.895500000000     0.306800000000     0.500000000000     0          
O        O      0.941000000000     0.273133333333     0.534500000000     0          
O        O      0.839000000000     0.276666666667     0.500000000000     0          
O        O      0.847200000000     0.001966666667     0.534500000000     0          
O        O      0.795000000000     0.241666666667     0.534400000000     0          
O        O      0.823300000000     0.059966666667     0.560766666667     0          
O        O      0.885600000000     0.049866666667     0.560833333333     0          
O        O      0.842600000000     0.140666666667     0.559700000000     0          
O        O      0.901700000000     0.116433333333     0.558733333333     0          
O        O      0.739400000000     0.219800000000     0.558833333333     0          
O        O      0.789800000000     0.178300000000     0.560566666667     0          
O        O      0.954500000000     0.002033333333     0.559866666667     0          
O        O      0.998300000000     0.285800000000     0.559800000000     0          
O        O      0.793400000000     0.057333333333     0.500000000000     0          
O        O      0.787700000000     0.112766666667     0.540366666667     0          
O        O      0.815400000000     0.159500000000     0.500000000000     0          
O        O      0.895200000000     0.080833333333     0.500000000000     0          
O        O      0.943800000000     0.067800000000     0.541966666667     0          
O        O      0.976600000000     0.026600000000     0.500000000000     0          
T        Si     0.881000000000     0.201733333333     0.626100000000     0          
T        Si     0.918300000000     0.270066666667     0.626033333333     0          
T        Si     0.854900000000     0.311766666667     0.626200000000     0          
T        Si     0.817200000000     0.243466666667     0.626333333333     0          
T        Si     0.878700000000     0.201033333333     0.500000000000     0          
T        Si     0.918700000000     0.273033333333     0.500000000000     0          
T        Si     0.857400000000     0.313766666667     0.500000000000     0          
T        Si     0.817400000000     0.241766666667     0.500000000000     0          
T        Si     0.851200000000     0.031100000000     0.564666666667     0          
T        Si     0.879800000000     0.150866666667     0.563866666667     0          
T        Si     0.777700000000     0.218233333333     0.563966666667     0          
T        Si     0.960600000000     0.293900000000     0.564300000000     0          
T        Si     0.791100000000     0.070700000000     0.539966666667     0          
T        Si     0.809000000000     0.147966666667     0.540033333333     0          
T        Si     0.906500000000     0.078833333333     0.540300000000     0          
T        Si     0.969100000000     0.035933333333     0.540333333333     0          
O        O      0.090100000000     0.104100000000     0.620600000000     0          
O        O      0.120600000000     0.143200000000     0.333333333333     0          
O        O      0.152300000000     0.113266666667     0.615100000000     0          
O        O      0.113600000000     0.165766666667     0.601966666667     0          
O        O      0.073600000000     0.056000000000     0.333333333333     0          
O        O      0.112000000000     0.039866666667     0.614400000000     0          
O        O      0.051300000000     0.052500000000     0.602300000000     0          
O        O      0.142500000000     0.009866666667     0.333333333333     0          
O        O      0.174200000000     0.048966666667     0.621566666667     0          
O        O      0.151500000000     0.320700000000     0.602500000000     0          
O        O      0.191600000000     0.097600000000     0.333333333333     0          
O        O      0.213000000000     0.099933333333     0.602033333333     0          
O        O      0.102900000000     0.095200000000     0.500000000000     0          
O        O      0.159400000000     0.125300000000     0.500000000000     0          
O        O      0.110900000000     0.153933333333     0.534433333333     0          
O        O      0.104500000000     0.026533333333     0.500000000000     0          
O        O      0.059000000000     0.060200000000     0.534500000000     0          
O        O      0.161000000000     0.056666666667     0.500000000000     0          
O        O      0.152800000000     0.331366666667     0.534500000000     0          
O        O      0.205000000000     0.091666666667     0.534400000000     0          
O        O      0.176700000000     0.273366666667     0.560766666667     0          
O        O      0.114400000000     0.283466666667     0.560833333333     0          
O        O      0.157400000000     0.192666666667     0.559700000000     0          
O        O      0.098300000000     0.216900000000     0.558733333333     0          
O        O      0.260600000000     0.113533333333     0.558833333333     0          
O        O      0.210200000000     0.155033333333     0.560566666667     0          
O        O      0.045500000000     0.331300000000     0.559866666667     0          
O        O      0.001700000000     0.047533333333     0.559800000000     0          
O        O      0.206600000000     0.276000000000     0.500000000000     0          
O        O      0.212300000000     0.220566666667     0.540366666667     0          
O        O      0.184600000000     0.173833333333     0.500000000000     0          
O        O      0.104800000000     0.252500000000     0.500000000000     0          
O        O      0.056200000000     0.265533333333     0.541966666667     0          
O        O      0.023400000000     0.306733333333     0.500000000000     0          
T        Si     0.119000000000     0.131600000000     0.626100000000     0          
T        Si     0.081700000000     0.063266666667     0.626033333333     0          
T        Si     0.145100000000     0.021566666667     0.626200000000     0          
T        Si     0.182800000000     0.089866666667     0.626333333333     0          
T        Si     0.121300000000     0.132300000000     0.500000000000     0          
T        Si     0.081300000000     0.060300000000     0.500000000000     0          
T        Si     0.142600000000     0.019566666667     0.500000000000     0          
T        Si     0.182600000000     0.091566666667     0.500000000000     0          
T        Si     0.148800000000     0.302233333333     0.564666666667     0          
T        Si     0.120200000000     0.182466666667     0.563866666667     0          
T        Si     0.222300000000     0.115100000000     0.563966666667     0          
T        Si     0.039400000000     0.039433333333     0.564300000000     0          
T        Si     0.208900000000     0.262633333333     0.539966666667     0          
T        Si     0.191000000000     0.185366666667     0.540033333333     0          
T        Si     0.093500000000     0.254500000000     0.540300000000     0          
T        Si     0.030900000000     0.297400000000     0.540333333333     0          
O        O      0.590100000000     0.062566666667     0.620600000000     0          
O        O      0.652300000000     0.053400000000     0.615100000000     0          
O        O      0.613600000000     0.000900000000     0.601966666667     0          
O        O      0.612000000000     0.126800000000     0.614400000000     0          
O        O      0.551300000000     0.114166666667     0.602300000000     0          
O        O      0.674200000000     0.117700000000     0.621566666667     0          
O        O      0.651500000000     0.179300000000     0.602500000000     0          
O        O      0.713000000000     0.066733333333     0.602033333333     0          
O        O      0.610900000000     0.012733333333     0.534433333333     0          
O        O      0.559000000000     0.106466666667     0.534500000000     0          
O        O      0.652800000000     0.168633333333     0.534500000000     0          
O        O      0.705000000000     0.075000000000     0.534400000000     0          
O        O      0.676700000000     0.226633333333     0.560766666667     0          
O        O      0.614400000000     0.216533333333     0.560833333333     0          
O        O      0.657400000000     0.307333333333     0.559700000000     0          
O        O      0.598300000000     0.283100000000     0.558733333333     0          
O        O      0.760600000000     0.053133333333     0.558833333333     0          
O        O      0.710200000000     0.011633333333     0.560566666667     0          
O        O      0.545500000000     0.168700000000     0.559866666667     0          
O        O      0.501700000000     0.119133333333     0.559800000000     0          
O        O      0.712300000000     0.279433333333     0.540366666667     0          
O        O      0.556200000000     0.234466666667     0.541966666667     0          
T        Si     0.619000000000     0.035066666667     0.626100000000     0          
T        Si     0.581700000000     0.103400000000     0.626033333333     0          
T        Si     0.645100000000     0.145100000000     0.626200000000     0          
T        Si     0.682800000000     0.076800000000     0.626333333333     0          
T        Si     0.648800000000     0.197766666667     0.564666666667     0          
T        Si     0.620200000000     0.317533333333     0.563866666667     0          
T        Si     0.722300000000     0.051566666667     0.563966666667     0          
T        Si     0.539400000000     0.127233333333     0.564300000000     0          
T        Si     0.708900000000     0.237366666667     0.539966666667     0          
T        Si     0.691000000000     0.314633333333     0.540033333333     0          
T        Si     0.593500000000     0.245500000000     0.540300000000     0          
T        Si     0.530900000000     0.202600000000     0.540333333333     0          
O        O      0.409900000000     0.270766666667     0.620600000000     0          
O        O      0.347700000000     0.279933333333     0.615100000000     0          
O        O      0.386400000000     0.332433333333     0.601966666667     0          
O        O      0.388000000000     0.206533333333     0.614400000000     0          
O        O      0.448700000000     0.219166666667     0.602300000000     0          
O        O      0.325800000000     0.215633333333     0.621566666667     0          
O        O      0.348500000000     0.154033333333     0.602500000000     0          
O        O      0.287000000000     0.266600000000     0.602033333333     0          
O        O      0.389100000000     0.320600000000     0.534433333333     0          
O        O      0.441000000000     0.226866666667     0.534500000000     0          
O        O      0.347200000000     0.164700000000     0.534500000000     0          
O        O      0.295000000000     0.258333333333     0.534400000000     0          
O        O      0.323300000000     0.106700000000     0.560766666667     0          
O        O      0.385600000000     0.116800000000     0.560833333333     0          
O        O      0.342600000000     0.026000000000     0.559700000000     0          
O        O      0.401700000000     0.050233333333     0.558733333333     0          
O        O      0.239400000000     0.280200000000     0.558833333333     0          
O        O      0.289800000000     0.321700000000     0.560566666667     0          
O        O      0.454500000000     0.164633333333     0.559866666667     0          
O        O      0.498300000000     0.214200000000     0.559800000000     0          
O        O      0.287700000000     0.053900000000     0.540366666667     0          
O        O      0.443800000000     0.098866666667     0.541966666667     0          
T        Si     0.381000000000     0.298266666667     0.626100000000     0          
T        Si     0.418300000000     0.229933333333     0.626033333333     0          
T        Si     0.354900000000     0.188233333333     0.626200000000     0          
T        Si     0.317200000000     0.256533333333     0.626333333333     0          
T        Si     0.351200000000     0.135566666667     0.564666666667     0          
T        Si     0.379800000000     0.015800000000     0.563866666667     0          
T        Si     0.277700000000     0.281766666667     0.563966666667     0          
T        Si     0.460600000000     0.206100000000     0.564300000000     0          
T        Si     0.291100000000     0.095966666667     0.539966666667     0          
T        Si     0.309000000000     0.018700000000     0.540033333333     0          
T        Si     0.406500000000     0.087833333333     0.540300000000     0          
T        Si     0.469100000000     0.130733333333     0.540333333333     0          
O        O      0.090100000000     0.104100000000     0.379400000000     0          
O        O      0.152300000000     0.113266666667     0.384900000000     0          
O        O      0.113600000000     0.165766666667     0.398033333333     0          
O        O      0.112000000000     0.039866666667     0.385600000000     0          
O        O      0.051300000000     0.052500000000     0.397700000000     0          
O        O      0.174200000000     0.048966666667     0.378433333333     0          
O        O      0.151500000000     0.320700000000     0.397500000000     0          
O        O      0.213000000000     0.099933333333     0.397966666667     0          
O        O      0.110900000000     0.153933333333     0.465566666667     0          
O        O      0.059000000000     0.060200000000     0.465500000000     0          
O        O      0.152800000000     0.331366666667     0.465500000000     0          
O        O      0.205000000000     0.091666666667     0.465600000000     0          
O        O      0.176700000000     0.273366666667     0.439233333333     0          
O        O      0.114400000000     0.283466666667     0.439166666667     0          
O        O      0.157400000000     0.192666666667     0.440300000000     0          
O        O      0.098300000000     0.216900000000     0.441266666667     0          
O        O      0.260600000000     0.113533333333     0.441166666667     0          
O        O      0.210200000000     0.155033333333     0.439433333333     0          
O        O      0.045500000000     0.331300000000     0.440133333333     0          
O        O      0.001700000000     0.047533333333     0.440200000000     0          
O        O      0.212300000000     0.220566666667     0.459633333333     0          
O        O      0.056200000000     0.265533333333     0.458033333333     0          
T        Si     0.119000000000     0.131600000000     0.373900000000     0          
T        Si     0.081700000000     0.063266666667     0.373966666667     0          
T        Si     0.145100000000     0.021566666667     0.373800000000     0          
T        Si     0.182800000000     0.089866666667     0.373666666667     0          
T        Si     0.148800000000     0.302233333333     0.435333333333     0          
T        Si     0.120200000000     0.182466666667     0.436133333333     0          
T        Si     0.222300000000     0.115100000000     0.436033333333     0          
T        Si     0.039400000000     0.039433333333     0.435700000000     0          
T        Si     0.208900000000     0.262633333333     0.460033333333     0          
T        Si     0.191000000000     0.185366666667     0.459966666667     0          
T        Si     0.093500000000     0.254500000000     0.459700000000     0          
T        Si     0.030900000000     0.297400000000     0.459666666667     0          
O        O      0.909900000000     0.229233333333     0.379400000000     0          
O        O      0.847700000000     0.220066666667     0.384900000000     0          
O        O      0.886400000000     0.167566666667     0.398033333333     0          
O        O      0.888000000000     0.293466666667     0.385600000000     0          
O        O      0.948700000000     0.280833333333     0.397700000000     0          
O        O      0.825800000000     0.284366666667     0.378433333333     0          
O        O      0.848500000000     0.012633333333     0.397500000000     0          
O        O      0.787000000000     0.233400000000     0.397966666667     0          
O        O      0.889100000000     0.179400000000     0.465566666667     0          
O        O      0.941000000000     0.273133333333     0.465500000000     0          
O        O      0.847200000000     0.001966666667     0.465500000000     0          
O        O      0.795000000000     0.241666666667     0.465600000000     0          
O        O      0.823300000000     0.059966666667     0.439233333333     0          
O        O      0.885600000000     0.049866666667     0.439166666667     0          
O        O      0.842600000000     0.140666666667     0.440300000000     0          
O        O      0.901700000000     0.116433333333     0.441266666667     0          
O        O      0.739400000000     0.219800000000     0.441166666667     0          
O        O      0.789800000000     0.178300000000     0.439433333333     0          
O        O      0.954500000000     0.002033333333     0.440133333333     0          
O        O      0.998300000000     0.285800000000     0.440200000000     0          
O        O      0.787700000000     0.112766666667     0.459633333333     0          
O        O      0.943800000000     0.067800000000     0.458033333333     0          
T        Si     0.881000000000     0.201733333333     0.373900000000     0          
T        Si     0.918300000000     0.270066666667     0.373966666667     0          
T        Si     0.854900000000     0.311766666667     0.373800000000     0          
T        Si     0.817200000000     0.243466666667     0.373666666667     0          
T        Si     0.851200000000     0.031100000000     0.435333333333     0          
T        Si     0.879800000000     0.150866666667     0.436133333333     0          
T        Si     0.777700000000     0.218233333333     0.436033333333     0          
T        Si     0.960600000000     0.293900000000     0.435700000000     0          
T        Si     0.791100000000     0.070700000000     0.460033333333     0          
T        Si     0.809000000000     0.147966666667     0.459966666667     0          
T        Si     0.906500000000     0.078833333333     0.459700000000     0          
T        Si     0.969100000000     0.035933333333     0.459666666667     0          
O        O      0.409900000000     0.270766666667     0.712733333333     0          
O        O      0.379400000000     0.309866666667     0.666666666667     0          
O        O      0.347700000000     0.279933333333     0.718233333333     0          
O        O      0.386400000000     0.332433333333     0.731366666667     0          
O        O      0.426400000000     0.222666666667     0.666666666667     0          
O        O      0.388000000000     0.206533333333     0.718933333333     0          
O        O      0.448700000000     0.219166666667     0.731033333333     0          
O        O      0.357500000000     0.176533333333     0.666666666667     0          
O        O      0.325800000000     0.215633333333     0.711766666667     0          
O        O      0.348500000000     0.154033333333     0.730833333333     0          
O        O      0.308400000000     0.264266666667     0.666666666667     0          
O        O      0.287000000000     0.266600000000     0.731300000000     0          
O        O      0.397100000000     0.261866666667     0.833333333333     0          
O        O      0.340600000000     0.291966666667     0.833333333333     0          
O        O      0.389100000000     0.320600000000     0.798900000000     0          
O        O      0.395500000000     0.193200000000     0.833333333333     0          
O        O      0.441000000000     0.226866666667     0.798833333333     0          
O        O      0.339000000000     0.223333333333     0.833333333333     0          
O        O      0.347200000000     0.164700000000     0.798833333333     0          
O        O      0.295000000000     0.258333333333     0.798933333333     0          
O        O      0.323300000000     0.106700000000     0.772566666667     0          
O        O      0.385600000000     0.116800000000     0.772500000000     0          
O        O      0.342600000000     0.026000000000     0.773633333333     0          
O        O      0.401700000000     0.050233333333     0.774600000000     0          
O        O      0.239400000000     0.280200000000     0.774500000000     0          
O        O      0.289800000000     0.321700000000     0.772766666667     0          
O        O      0.454500000000     0.164633333333     0.773466666667     0          
O        O      0.498300000000     0.214200000000     0.773533333333     0          
O        O      0.293400000000     0.109333333333     0.833333333333     0          
O        O      0.287700000000     0.053900000000     0.792966666667     0          
O        O      0.315400000000     0.007166666667     0.833333333333     0          
O        O      0.395200000000     0.085833333333     0.833333333333     0          
O        O      0.443800000000     0.098866666667     0.791366666667     0          
O        O      0.476600000000     0.140066666667     0.833333333333     0          
T        Si     0.381000000000     0.298266666667     0.707233333333     0          
T        Si     0.418300000000     0.229933333333     0.707300000000     0          
T        Si     0.354900000000     0.188233333333     0.707133333333     0          
T        Si     0.317200000000     0.256533333333     0.707000000000     0          
T        Si     0.378700000000     0.298966666667     0.833333333333     0          
T        Si     0.418700000000     0.226966666667     0.833333333333     0          
T        Si     0.357400000000     0.186233333333     0.833333333333     0          
T        Si     0.317400000000     0.258233333333     0.833333333333     0          
T        Si     0.351200000000     0.135566666667     0.768666666667     0          
T        Si     0.379800000000     0.015800000000     0.769466666667     0          
T        Si     0.277700000000     0.281766666667     0.769366666667     0          
T        Si     0.460600000000     0.206100000000     0.769033333333     0          
T        Si     0.291100000000     0.095966666667     0.793366666667     0          
T        Si     0.309000000000     0.018700000000     0.793300000000     0          
T        Si     0.406500000000     0.087833333333     0.793033333333     0          
T        Si     0.469100000000     0.130733333333     0.793000000000     0          
O        O      0.590100000000     0.062566666667     0.712733333333     0          
O        O      0.620600000000     0.023466666667     0.666666666667     0          
O        O      0.652300000000     0.053400000000     0.718233333333     0          
O        O      0.613600000000     0.000900000000     0.731366666667     0          
O        O      0.573600000000     0.110666666667     0.666666666667     0          
O        O      0.612000000000     0.126800000000     0.718933333333     0          
O        O      0.551300000000     0.114166666667     0.731033333333     0          
O        O      0.642500000000     0.156800000000     0.666666666667     0          
O        O      0.674200000000     0.117700000000     0.711766666667     0          
O        O      0.651500000000     0.179300000000     0.730833333333     0          
O        O      0.691600000000     0.069066666667     0.666666666667     0          
O        O      0.713000000000     0.066733333333     0.731300000000     0          
O        O      0.602900000000     0.071466666667     0.833333333333     0          
O        O      0.659400000000     0.041366666667     0.833333333333     0          
O        O      0.610900000000     0.012733333333     0.798900000000     0          
O        O      0.604500000000     0.140133333333     0.833333333333     0          
O        O      0.559000000000     0.106466666667     0.798833333333     0          
O        O      0.661000000000     0.110000000000     0.833333333333     0          
O        O      0.652800000000     0.168633333333     0.798833333333     0          
O        O      0.705000000000     0.075000000000     0.798933333333     0          
O        O      0.676700000000     0.226633333333     0.772566666667     0          
O        O      0.614400000000     0.216533333333     0.772500000000     0          
O        O      0.657400000000     0.307333333333     0.773633333333     0          
O        O      0.598300000000     0.283100000000     0.774600000000     0          
O        O      0.760600000000     0.053133333333     0.774500000000     0          
O        O      0.710200000000     0.011633333333     0.772766666667     0          
O        O      0.545500000000     0.168700000000     0.773466666667     0          
O        O      0.501700000000     0.119133333333     0.773533333333     0          
O        O      0.706600000000     0.224000000000     0.833333333333     0          
O        O      0.712300000000     0.279433333333     0.792966666667     0          
O        O      0.684600000000     0.326166666667     0.833333333333     0          
O        O      0.604800000000     0.247500000000     0.833333333333     0          
O        O      0.556200000000     0.234466666667     0.791366666667     0          
O        O      0.523400000000     0.193266666667     0.833333333333     0          
T        Si     0.619000000000     0.035066666667     0.707233333333     0          
T        Si     0.581700000000     0.103400000000     0.707300000000     0          
T        Si     0.645100000000     0.145100000000     0.707133333333     0          
T        Si     0.682800000000     0.076800000000     0.707000000000     0          
T        Si     0.621300000000     0.034366666667     0.833333333333     0          
T        Si     0.581300000000     0.106366666667     0.833333333333     0          
T        Si     0.642600000000     0.147100000000     0.833333333333     0          
T        Si     0.682600000000     0.075100000000     0.833333333333     0          
T        Si     0.648800000000     0.197766666667     0.768666666667     0          
T        Si     0.620200000000     0.317533333333     0.769466666667     0          
T        Si     0.722300000000     0.051566666667     0.769366666667     0          
T        Si     0.539400000000     0.127233333333     0.769033333333     0          
T        Si     0.708900000000     0.237366666667     0.793366666667     0          
T        Si     0.691000000000     0.314633333333     0.793300000000     0          
T        Si     0.593500000000     0.245500000000     0.793033333333     0          
T        Si     0.530900000000     0.202600000000     0.793000000000     0          
O        O      0.909900000000     0.229233333333     0.953933333333     0          
O        O      0.879400000000     0.190133333333     0.666666666667     0          
O        O      0.847700000000     0.220066666667     0.948433333333     0          
O        O      0.886400000000     0.167566666667     0.935300000000     0          
O        O      0.926400000000     0.277333333333     0.666666666667     0          
O        O      0.888000000000     0.293466666667     0.947733333333     0          
O        O      0.948700000000     0.280833333333     0.935633333333     0          
O        O      0.857500000000     0.323466666667     0.666666666667     0          
O        O      0.825800000000     0.284366666667     0.954900000000     0          
O        O      0.848500000000     0.012633333333     0.935833333333     0          
O        O      0.808400000000     0.235733333333     0.666666666667     0          
O        O      0.787000000000     0.233400000000     0.935366666667     0          
O        O      0.897100000000     0.238133333333     0.833333333333     0          
O        O      0.840600000000     0.208033333333     0.833333333333     0          
O        O      0.889100000000     0.179400000000     0.867766666667     0          
O        O      0.895500000000     0.306800000000     0.833333333333     0          
O        O      0.941000000000     0.273133333333     0.867833333333     0          
O        O      0.839000000000     0.276666666667     0.833333333333     0          
O        O      0.847200000000     0.001966666667     0.867833333333     0          
O        O      0.795000000000     0.241666666667     0.867733333333     0          
O        O      0.823300000000     0.059966666667     0.894100000000     0          
O        O      0.885600000000     0.049866666667     0.894166666667     0          
O        O      0.842600000000     0.140666666667     0.893033333333     0          
O        O      0.901700000000     0.116433333333     0.892066666667     0          
O        O      0.739400000000     0.219800000000     0.892166666667     0          
O        O      0.789800000000     0.178300000000     0.893900000000     0          
O        O      0.954500000000     0.002033333333     0.893200000000     0          
O        O      0.998300000000     0.285800000000     0.893133333333     0          
O        O      0.793400000000     0.057333333333     0.833333333333     0          
O        O      0.787700000000     0.112766666667     0.873700000000     0          
O        O      0.815400000000     0.159500000000     0.833333333333     0          
O        O      0.895200000000     0.080833333333     0.833333333333     0          
O        O      0.943800000000     0.067800000000     0.875300000000     0          
O        O      0.976600000000     0.026600000000     0.833333333333     0          
T        Si     0.881000000000     0.201733333333     0.959433333333     0          
T        Si     0.918300000000     0.270066666667     0.959366666667     0          
T        Si     0.854900000000     0.311766666667     0.959533333333     0          
T        Si     0.817200000000     0.243466666667     0.959666666667     0          
T        Si     0.878700000000     0.201033333333     0.833333333333     0          
T        Si     0.918700000000     0.273033333333     0.833333333333     0          
T        Si     0.857400000000     0.313766666667     0.833333333333     0          
T        Si     0.817400000000     0.241766666667     0.833333333333     0          
T        Si     0.851200000000     0.031100000000     0.898000000000     0          
T        Si     0.879800000000     0.150866666667     0.897200000000     0          
T        Si     0.777700000000     0.218233333333     0.897300000000     0          
T        Si     0.960600000000     0.293900000000     0.897633333333     0          
T        Si     0.791100000000     0.070700000000     0.873300000000     0          
T        Si     0.809000000000     0.147966666667     0.873366666667     0          
T        Si     0.906500000000     0.078833333333     0.873633333333     0          
T        Si     0.969100000000     0.035933333333     0.873666666667     0          
O        O      0.090100000000     0.104100000000     0.953933333333     0          
O        O      0.120600000000     0.143200000000     0.666666666667     0          
O        O      0.152300000000     0.113266666667     0.948433333333     0          
O        O      0.113600000000     0.165766666667     0.935300000000     0          
O        O      0.073600000000     0.056000000000     0.666666666667     0          
O        O      0.112000000000     0.039866666667     0.947733333333     0          
O        O      0.051300000000     0.052500000000     0.935633333333     0          
O        O      0.142500000000     0.009866666667     0.666666666667     0          
O        O      0.174200000000     0.048966666667     0.954900000000     0          
O        O      0.151500000000     0.320700000000     0.935833333333     0          
O        O      0.191600000000     0.097600000000     0.666666666667     0          
O        O      0.213000000000     0.099933333333     0.935366666667     0          
O        O      0.102900000000     0.095200000000     0.833333333333     0          
O        O      0.159400000000     0.125300000000     0.833333333333     0          
O        O      0.110900000000     0.153933333333     0.867766666667     0          
O        O      0.104500000000     0.026533333333     0.833333333333     0          
O        O      0.059000000000     0.060200000000     0.867833333333     0          
O        O      0.161000000000     0.056666666667     0.833333333333     0          
O        O      0.152800000000     0.331366666667     0.867833333333     0          
O        O      0.205000000000     0.091666666667     0.867733333333     0          
O        O      0.176700000000     0.273366666667     0.894100000000     0          
O        O      0.114400000000     0.283466666667     0.894166666667     0          
O        O      0.157400000000     0.192666666667     0.893033333333     0          
O        O      0.098300000000     0.216900000000     0.892066666667     0          
O        O      0.260600000000     0.113533333333     0.892166666667     0          
O        O      0.210200000000     0.155033333333     0.893900000000     0          
O        O      0.045500000000     0.331300000000     0.893200000000     0          
O        O      0.001700000000     0.047533333333     0.893133333333     0          
O        O      0.206600000000     0.276000000000     0.833333333333     0          
O        O      0.212300000000     0.220566666667     0.873700000000     0          
O        O      0.184600000000     0.173833333333     0.833333333333     0          
O        O      0.104800000000     0.252500000000     0.833333333333     0          
O        O      0.056200000000     0.265533333333     0.875300000000     0          
O        O      0.023400000000     0.306733333333     0.833333333333     0          
T        Si     0.119000000000     0.131600000000     0.959433333333     0          
T        Si     0.081700000000     0.063266666667     0.959366666667     0          
T        Si     0.145100000000     0.021566666667     0.959533333333     0          
T        Si     0.182800000000     0.089866666667     0.959666666667     0          
T        Si     0.121300000000     0.132300000000     0.833333333333     0          
T        Si     0.081300000000     0.060300000000     0.833333333333     0          
T        Si     0.142600000000     0.019566666667     0.833333333333     0          
T        Si     0.182600000000     0.091566666667     0.833333333333     0          
T        Si     0.148800000000     0.302233333333     0.898000000000     0          
T        Si     0.120200000000     0.182466666667     0.897200000000     0          
T        Si     0.222300000000     0.115100000000     0.897300000000     0          
T        Si     0.039400000000     0.039433333333     0.897633333333     0          
T        Si     0.208900000000     0.262633333333     0.873300000000     0          
T        Si     0.191000000000     0.185366666667     0.873366666667     0          
T        Si     0.093500000000     0.254500000000     0.873633333333     0          
T        Si     0.030900000000     0.297400000000     0.873666666667     0          
O        O      0.590100000000     0.062566666667     0.953933333333     0          
O        O      0.652300000000     0.053400000000     0.948433333333     0          
O        O      0.613600000000     0.000900000000     0.935300000000     0          
O        O      0.612000000000     0.126800000000     0.947733333333     0          
O        O      0.551300000000     0.114166666667     0.935633333333     0          
O        O      0.674200000000     0.117700000000     0.954900000000     0          
O        O      0.651500000000     0.179300000000     0.935833333333     0          
O        O      0.713000000000     0.066733333333     0.935366666667     0          
O        O      0.610900000000     0.012733333333     0.867766666667     0          
O        O      0.559000000000     0.106466666667     0.867833333333     0          
O        O      0.652800000000     0.168633333333     0.867833333333     0          
O        O      0.705000000000     0.075000000000     0.867733333333     0          
O        O      0.676700000000     0.226633333333     0.894100000000     0          
O        O      0.614400000000     0.216533333333     0.894166666667     0          
O        O      0.657400000000     0.307333333333     0.893033333333     0          
O        O      0.598300000000     0.283100000000     0.892066666667     0          
O        O      0.760600000000     0.053133333333     0.892166666667     0          
O        O      0.710200000000     0.011633333333     0.893900000000     0          
O        O      0.545500000000     0.168700000000     0.893200000000     0          
O        O      0.501700000000     0.119133333333     0.893133333333     0          
O        O      0.712300000000     0.279433333333     0.873700000000     0          
O        O      0.556200000000     0.234466666667     0.875300000000     0          
T        Si     0.619000000000     0.035066666667     0.959433333333     0          
T        Si     0.581700000000     0.103400000000     0.959366666667     0          
T        Si     0.645100000000     0.145100000000     0.959533333333     0          
T        Si     0.682800000000     0.076800000000     0.959666666667     0          
T        Si     0.648800000000     0.197766666667     0.898000000000     0          
T        Si     0.620200000000     0.317533333333     0.897200000000     0          
T        Si     0.722300000000     0.051566666667     0.897300000000     0          
T        Si     0.539400000000     0.127233333333     0.897633333333     0          
T        Si     0.708900000000     0.237366666667     0.873300000000     0          
T        Si     0.691000000000     0.314633333333     0.873366666667     0          
T        Si     0.593500000000     0.245500000000     0.873633333333     0          
T        Si     0.530900000000     0.202600000000     0.873666666667     0          
O        O      0.409900000000     0.270766666667     0.953933333333     0          
O        O      0.347700000000     0.279933333333     0.948433333333     0          
O        O      0.386400000000     0.332433333333     0.935300000000     0          
O        O      0.388000000000     0.206533333333     0.947733333333     0          
O        O      0.448700000000     0.219166666667     0.935633333333     0          
O        O      0.325800000000     0.215633333333     0.954900000000     0          
O        O      0.348500000000     0.154033333333     0.935833333333     0          
O        O      0.287000000000     0.266600000000     0.935366666667     0          
O        O      0.389100000000     0.320600000000     0.867766666667     0          
O        O      0.441000000000     0.226866666667     0.867833333333     0          
O        O      0.347200000000     0.164700000000     0.867833333333     0          
O        O      0.295000000000     0.258333333333     0.867733333333     0          
O        O      0.323300000000     0.106700000000     0.894100000000     0          
O        O      0.385600000000     0.116800000000     0.894166666667     0          
O        O      0.342600000000     0.026000000000     0.893033333333     0          
O        O      0.401700000000     0.050233333333     0.892066666667     0          
O        O      0.239400000000     0.280200000000     0.892166666667     0          
O        O      0.289800000000     0.321700000000     0.893900000000     0          
O        O      0.454500000000     0.164633333333     0.893200000000     0          
O        O      0.498300000000     0.214200000000     0.893133333333     0          
O        O      0.287700000000     0.053900000000     0.873700000000     0          
O        O      0.443800000000     0.098866666667     0.875300000000     0          
T        Si     0.381000000000     0.298266666667     0.959433333333     0          
T        Si     0.418300000000     0.229933333333     0.959366666667     0          
T        Si     0.354900000000     0.188233333333     0.959533333333     0          
T        Si     0.317200000000     0.256533333333     0.959666666667     0          
T        Si     0.351200000000     0.135566666667     0.898000000000     0          
T        Si     0.379800000000     0.015800000000     0.897200000000     0          
T        Si     0.277700000000     0.281766666667     0.897300000000     0          
T        Si     0.460600000000     0.206100000000     0.897633333333     0          
T        Si     0.291100000000     0.095966666667     0.873300000000     0          
T        Si     0.309000000000     0.018700000000     0.873366666667     0          
T        Si     0.406500000000     0.087833333333     0.873633333333     0          
T        Si     0.469100000000     0.130733333333     0.873666666667     0          
O        O      0.090100000000     0.104100000000     0.712733333333     0          
O        O      0.152300000000     0.113266666667     0.718233333333     0          
O        O      0.113600000000     0.165766666667     0.731366666667     0          
O        O      0.112000000000     0.039866666667     0.718933333333     0          
O        O      0.051300000000     0.052500000000     0.731033333333     0          
O        O      0.174200000000     0.048966666667     0.711766666667     0          
O        O      0.151500000000     0.320700000000     0.730833333333     0          
O        O      0.213000000000     0.099933333333     0.731300000000     0          
O        O      0.110900000000     0.153933333333     0.798900000000     0          
O        O      0.059000000000     0.060200000000     0.798833333333     0          
O        O      0.152800000000     0.331366666667     0.798833333333     0          
O        O      0.205000000000     0.091666666667     0.798933333333     0          
O        O      0.176700000000     0.273366666667     0.772566666667     0          
O        O      0.114400000000     0.283466666667     0.772500000000     0          
O        O      0.157400000000     0.192666666667     0.773633333333     0          
O        O      0.098300000000     0.216900000000     0.774600000000     0          
O        O      0.260600000000     0.113533333333     0.774500000000     0          
O        O      0.210200000000     0.155033333333     0.772766666667     0          
O        O      0.045500000000     0.331300000000     0.773466666667     0          
O        O      0.001700000000     0.047533333333     0.773533333333     0          
O        O      0.212300000000     0.220566666667     0.792966666667     0          
O        O      0.056200000000     0.265533333333     0.791366666667     0          
T        Si     0.119000000000     0.131600000000     0.707233333333     0          
T        Si     0.081700000000     0.063266666667     0.707300000000     0          
T        Si     0.145100000000     0.021566666667     0.707133333333     0          
T        Si     0.182800000000     0.089866666667     0.707000000000     0          
T        Si     0.148800000000     0.302233333333     0.768666666667     0          
T        Si     0.120200000000     0.182466666667     0.769466666667     0          
T        Si     0.222300000000     0.115100000000     0.769366666667     0          
T        Si     0.039400000000     0.039433333333     0.769033333333     0          
T        Si     0.208900000000     0.262633333333     0.793366666667     0          
T        Si     0.191000000000     0.185366666667     0.793300000000     0          
T        Si     0.093500000000     0.254500000000     0.793033333333     0          
T        Si     0.030900000000     0.297400000000     0.793000000000     0          
O        O      0.909900000000     0.229233333333     0.712733333333     0          
O        O      0.847700000000     0.220066666667     0.718233333333     0          
O        O      0.886400000000     0.167566666667     0.731366666667     0          
O        O      0.888000000000     0.293466666667     0.718933333333     0          
O        O      0.948700000000     0.280833333333     0.731033333333     0          
O        O      0.825800000000     0.284366666667     0.711766666667     0          
O        O      0.848500000000     0.012633333333     0.730833333333     0          
O        O      0.787000000000     0.233400000000     0.731300000000     0          
O        O      0.889100000000     0.179400000000     0.798900000000     0          
O        O      0.941000000000     0.273133333333     0.798833333333     0          
O        O      0.847200000000     0.001966666667     0.798833333333     0          
O        O      0.795000000000     0.241666666667     0.798933333333     0          
O        O      0.823300000000     0.059966666667     0.772566666667     0          
O        O      0.885600000000     0.049866666667     0.772500000000     0          
O        O      0.842600000000     0.140666666667     0.773633333333     0          
O        O      0.901700000000     0.116433333333     0.774600000000     0          
O        O      0.739400000000     0.219800000000     0.774500000000     0          
O        O      0.789800000000     0.178300000000     0.772766666667     0          
O        O      0.954500000000     0.002033333333     0.773466666667     0          
O        O      0.998300000000     0.285800000000     0.773533333333     0          
O        O      0.787700000000     0.112766666667     0.792966666667     0          
O        O      0.943800000000     0.067800000000     0.791366666667     0          
T        Si     0.881000000000     0.201733333333     0.707233333333     0          
T        Si     0.918300000000     0.270066666667     0.707300000000     0          
T        Si     0.854900000000     0.311766666667     0.707133333333     0          
T        Si     0.817200000000     0.243466666667     0.707000000000     0          
T        Si     0.851200000000     0.031100000000     0.768666666667     0          
T        Si     0.879800000000     0.150866666667     0.769466666667     0          
T        Si     0.777700000000     0.218233333333     0.769366666667     0          
T        Si     0.960600000000     0.293900000000     0.769033333333     0          
T        Si     0.791100000000     0.070700000000     0.793366666667     0          
T        Si     0.809000000000     0.147966666667     0.793300000000     0          
T        Si     0.906500000000     0.078833333333     0.793033333333     0          
T        Si     0.969100000000     0.035933333333     0.793000000000     0          
O        O      0.409900000000     0.604100000000     0.046066666667     0          
O        O      0.379400000000     0.643200000000     0.000000000000     0          
O        O      0.347700000000     0.613266666667     0.051566666667     0          
O        O      0.386400000000     0.665766666667     0.064700000000     0          
O        O      0.426400000000     0.556000000000     0.000000000000     0          
O        O      0.388000000000     0.539866666667     0.052266666667     0          
O        O      0.448700000000     0.552500000000     0.064366666667     0          
O        O      0.357500000000     0.509866666667     0.000000000000     0          
O        O      0.325800000000     0.548966666667     0.045100000000     0          
O        O      0.348500000000     0.487366666667     0.064166666667     0          
O        O      0.308400000000     0.597600000000     0.000000000000     0          
O        O      0.287000000000     0.599933333333     0.064633333333     0          
O        O      0.397100000000     0.595200000000     0.166666666667     0          
O        O      0.340600000000     0.625300000000     0.166666666667     0          
O        O      0.389100000000     0.653933333333     0.132233333333     0          
O        O      0.395500000000     0.526533333333     0.166666666667     0          
O        O      0.441000000000     0.560200000000     0.132166666667     0          
O        O      0.339000000000     0.556666666667     0.166666666667     0          
O        O      0.347200000000     0.498033333333     0.132166666667     0          
O        O      0.295000000000     0.591666666667     0.132266666667     0          
O        O      0.323300000000     0.440033333333     0.105900000000     0          
O        O      0.385600000000     0.450133333333     0.105833333333     0          
O        O      0.342600000000     0.359333333333     0.106966666667     0          
O        O      0.401700000000     0.383566666667     0.107933333333     0          
O        O      0.239400000000     0.613533333333     0.107833333333     0          
O        O      0.289800000000     0.655033333333     0.106100000000     0          
O        O      0.454500000000     0.497966666667     0.106800000000     0          
O        O      0.498300000000     0.547533333333     0.106866666667     0          
O        O      0.293400000000     0.442666666667     0.166666666667     0          
O        O      0.287700000000     0.387233333333     0.126300000000     0          
O        O      0.315400000000     0.340500000000     0.166666666667     0          
O        O      0.395200000000     0.419166666667     0.166666666667     0          
O        O      0.443800000000     0.432200000000     0.124700000000     0          
O        O      0.476600000000     0.473400000000     0.166666666667     0          
T        Si     0.381000000000     0.631600000000     0.040566666667     0          
T        Si     0.418300000000     0.563266666667     0.040633333333     0          
T        Si     0.354900000000     0.521566666667     0.040466666667     0          
T        Si     0.317200000000     0.589866666667     0.040333333333     0          
T        Si     0.378700000000     0.632300000000     0.166666666667     0          
T        Si     0.418700000000     0.560300000000     0.166666666667     0          
T        Si     0.357400000000     0.519566666667     0.166666666667     0          
T        Si     0.317400000000     0.591566666667     0.166666666667     0          
T        Si     0.351200000000     0.468900000000     0.102000000000     0          
T        Si     0.379800000000     0.349133333333     0.102800000000     0          
T        Si     0.277700000000     0.615100000000     0.102700000000     0          
T        Si     0.460600000000     0.539433333333     0.102366666667     0          
T        Si     0.291100000000     0.429300000000     0.126700000000     0          
T        Si     0.309000000000     0.352033333333     0.126633333333     0          
T        Si     0.406500000000     0.421166666667     0.126366666667     0          
T        Si     0.469100000000     0.464066666667     0.126333333333     0          
O        O      0.590100000000     0.395900000000     0.046066666667     0          
O        O      0.620600000000     0.356800000000     0.000000000000     0          
O        O      0.652300000000     0.386733333333     0.051566666667     0          
O        O      0.613600000000     0.334233333333     0.064700000000     0          
O        O      0.573600000000     0.444000000000     0.000000000000     0          
O        O      0.612000000000     0.460133333333     0.052266666667     0          
O        O      0.551300000000     0.447500000000     0.064366666667     0          
O        O      0.642500000000     0.490133333333     0.000000000000     0          
O        O      0.674200000000     0.451033333333     0.045100000000     0          
O        O      0.651500000000     0.512633333333     0.064166666667     0          
O        O      0.691600000000     0.402400000000     0.000000000000     0          
O        O      0.713000000000     0.400066666667     0.064633333333     0          
O        O      0.602900000000     0.404800000000     0.166666666667     0          
O        O      0.659400000000     0.374700000000     0.166666666667     0          
O        O      0.610900000000     0.346066666667     0.132233333333     0          
O        O      0.604500000000     0.473466666667     0.166666666667     0          
O        O      0.559000000000     0.439800000000     0.132166666667     0          
O        O      0.661000000000     0.443333333333     0.166666666667     0          
O        O      0.652800000000     0.501966666667     0.132166666667     0          
O        O      0.705000000000     0.408333333333     0.132266666667     0          
O        O      0.676700000000     0.559966666667     0.105900000000     0          
O        O      0.614400000000     0.549866666667     0.105833333333     0          
O        O      0.657400000000     0.640666666667     0.106966666667     0          
O        O      0.598300000000     0.616433333333     0.107933333333     0          
O        O      0.760600000000     0.386466666667     0.107833333333     0          
O        O      0.710200000000     0.344966666667     0.106100000000     0          
O        O      0.545500000000     0.502033333333     0.106800000000     0          
O        O      0.501700000000     0.452466666667     0.106866666667     0          
O        O      0.706600000000     0.557333333333     0.166666666667     0          
O        O      0.712300000000     0.612766666667     0.126300000000     0          
O        O      0.684600000000     0.659500000000     0.166666666667     0          
O        O      0.604800000000     0.580833333333     0.166666666667     0          
O        O      0.556200000000     0.567800000000     0.124700000000     0          
O        O      0.523400000000     0.526600000000     0.166666666667     0          
T        Si     0.619000000000     0.368400000000     0.040566666667     0          
T        Si     0.581700000000     0.436733333333     0.040633333333     0          
T        Si     0.645100000000     0.478433333333     0.040466666667     0          
T        Si     0.682800000000     0.410133333333     0.040333333333     0          
T        Si     0.621300000000     0.367700000000     0.166666666667     0          
T        Si     0.581300000000     0.439700000000     0.166666666667     0          
T        Si     0.642600000000     0.480433333333     0.166666666667     0          
T        Si     0.682600000000     0.408433333333     0.166666666667     0          
T        Si     0.648800000000     0.531100000000     0.102000000000     0          
T        Si     0.620200000000     0.650866666667     0.102800000000     0          
T        Si     0.722300000000     0.384900000000     0.102700000000     0          
T        Si     0.539400000000     0.460566666667     0.102366666667     0          
T        Si     0.708900000000     0.570700000000     0.126700000000     0          
T        Si     0.691000000000     0.647966666667     0.126633333333     0          
T        Si     0.593500000000     0.578833333333     0.126366666667     0          
T        Si     0.530900000000     0.535933333333     0.126333333333     0          
O        O      0.909900000000     0.562566666667     0.287266666667     0          
O        O      0.879400000000     0.523466666667     0.000000000000     0          
O        O      0.847700000000     0.553400000000     0.281766666667     0          
O        O      0.886400000000     0.500900000000     0.268633333333     0          
O        O      0.926400000000     0.610666666667     0.000000000000     0          
O        O      0.888000000000     0.626800000000     0.281066666667     0          
O        O      0.948700000000     0.614166666667     0.268966666667     0          
O        O      0.857500000000     0.656800000000     0.000000000000     0          
O        O      0.825800000000     0.617700000000     0.288233333333     0          
O        O      0.848500000000     0.345966666667     0.269166666667     0          
O        O      0.808400000000     0.569066666667     0.000000000000     0          
O        O      0.787000000000     0.566733333333     0.268700000000     0          
O        O      0.897100000000     0.571466666667     0.166666666667     0          
O        O      0.840600000000     0.541366666667     0.166666666667     0          
O        O      0.889100000000     0.512733333333     0.201100000000     0          
O        O      0.895500000000     0.640133333333     0.166666666667     0          
O        O      0.941000000000     0.606466666667     0.201166666667     0          
O        O      0.839000000000     0.610000000000     0.166666666667     0          
O        O      0.847200000000     0.335300000000     0.201166666667     0          
O        O      0.795000000000     0.575000000000     0.201066666667     0          
O        O      0.823300000000     0.393300000000     0.227433333333     0          
O        O      0.885600000000     0.383200000000     0.227500000000     0          
O        O      0.842600000000     0.474000000000     0.226366666667     0          
O        O      0.901700000000     0.449766666667     0.225400000000     0          
O        O      0.739400000000     0.553133333333     0.225500000000     0          
O        O      0.789800000000     0.511633333333     0.227233333333     0          
O        O      0.954500000000     0.335366666667     0.226533333333     0          
O        O      0.998300000000     0.619133333333     0.226466666667     0          
O        O      0.793400000000     0.390666666667     0.166666666667     0          
O        O      0.787700000000     0.446100000000     0.207033333333     0          
O        O      0.815400000000     0.492833333333     0.166666666667     0          
O        O      0.895200000000     0.414166666667     0.166666666667     0          
O        O      0.943800000000     0.401133333333     0.208633333333     0          
O        O      0.976600000000     0.359933333333     0.166666666667     0          
T        Si     0.881000000000     0.535066666667     0.292766666667     0          
T        Si     0.918300000000     0.603400000000     0.292700000000     0          
T        Si     0.854900000000     0.645100000000     0.292866666667     0          
T        Si     0.817200000000     0.576800000000     0.293000000000     0          
T        Si     0.878700000000     0.534366666667     0.166666666667     0          
T        Si     0.918700000000     0.606366666667     0.166666666667     0          
T        Si     0.857400000000     0.647100000000     0.166666666667     0          
T        Si     0.817400000000     0.575100000000     0.166666666667     0          
T        Si     0.851200000000     0.364433333333     0.231333333333     0          
T        Si     0.879800000000     0.484200000000     0.230533333333     0          
T        Si     0.777700000000     0.551566666667     0.230633333333     0          
T        Si     0.960600000000     0.627233333333     0.230966666667     0          
T        Si     0.791100000000     0.404033333333     0.206633333333     0          
T        Si     0.809000000000     0.481300000000     0.206700000000     0          
T        Si     0.906500000000     0.412166666667     0.206966666667     0          
T        Si     0.969100000000     0.369266666667     0.207000000000     0          
O        O      0.090100000000     0.437433333333     0.287266666667     0          
O        O      0.120600000000     0.476533333333     0.000000000000     0          
O        O      0.152300000000     0.446600000000     0.281766666667     0          
O        O      0.113600000000     0.499100000000     0.268633333333     0          
O        O      0.073600000000     0.389333333333     0.000000000000     0          
O        O      0.112000000000     0.373200000000     0.281066666667     0          
O        O      0.051300000000     0.385833333333     0.268966666667     0          
O        O      0.142500000000     0.343200000000     0.000000000000     0          
O        O      0.174200000000     0.382300000000     0.288233333333     0          
O        O      0.151500000000     0.654033333333     0.269166666667     0          
O        O      0.191600000000     0.430933333333     0.000000000000     0          
O        O      0.213000000000     0.433266666667     0.268700000000     0          
O        O      0.102900000000     0.428533333333     0.166666666667     0          
O        O      0.159400000000     0.458633333333     0.166666666667     0          
O        O      0.110900000000     0.487266666667     0.201100000000     0          
O        O      0.104500000000     0.359866666667     0.166666666667     0          
O        O      0.059000000000     0.393533333333     0.201166666667     0          
O        O      0.161000000000     0.390000000000     0.166666666667     0          
O        O      0.152800000000     0.664700000000     0.201166666667     0          
O        O      0.205000000000     0.425000000000     0.201066666667     0          
O        O      0.176700000000     0.606700000000     0.227433333333     0          
O        O      0.114400000000     0.616800000000     0.227500000000     0          
O        O      0.157400000000     0.526000000000     0.226366666667     0          
O        O      0.098300000000     0.550233333333     0.225400000000     0          
O        O      0.260600000000     0.446866666667     0.225500000000     0          
O        O      0.210200000000     0.488366666667     0.227233333333     0          
O        O      0.045500000000     0.664633333333     0.226533333333     0          
O        O      0.001700000000     0.380866666667     0.226466666667     0          
O        O      0.206600000000     0.609333333333     0.166666666667     0          
O        O      0.212300000000     0.553900000000     0.207033333333     0          
O        O      0.184600000000     0.507166666667     0.166666666667     0          
O        O      0.104800000000     0.585833333333     0.166666666667     0          
O        O      0.056200000000     0.598866666667     0.208633333333     0          
O        O      0.023400000000     0.640066666667     0.166666666667     0          
T        Si     0.119000000000     0.464933333333     0.292766666667     0          
T        Si     0.081700000000     0.396600000000     0.292700000000     0          
T        Si     0.145100000000     0.354900000000     0.292866666667     0          
T        Si     0.182800000000     0.423200000000     0.293000000000     0          
T        Si     0.121300000000     0.465633333333     0.166666666667     0          
T        Si     0.081300000000     0.393633333333     0.166666666667     0          
T        Si     0.142600000000     0.352900000000     0.166666666667     0          
T        Si     0.182600000000     0.424900000000     0.166666666667     0          
T        Si     0.148800000000     0.635566666667     0.231333333333     0          
T        Si     0.120200000000     0.515800000000     0.230533333333     0          
T        Si     0.222300000000     0.448433333333     0.230633333333     0          
T        Si     0.039400000000     0.372766666667     0.230966666667     0          
T        Si     0.208900000000     0.595966666667     0.206633333333     0          
T        Si     0.191000000000     0.518700000000     0.206700000000     0          
T        Si     0.093500000000     0.587833333333     0.206966666667     0          
T        Si     0.030900000000     0.630733333333     0.207000000000     0          
O        O      0.590100000000     0.395900000000     0.287266666667     0          
O        O      0.652300000000     0.386733333333     0.281766666667     0          
O        O      0.613600000000     0.334233333333     0.268633333333     0          
O        O      0.612000000000     0.460133333333     0.281066666667     0          
O        O      0.551300000000     0.447500000000     0.268966666667     0          
O        O      0.674200000000     0.451033333333     0.288233333333     0          
O        O      0.651500000000     0.512633333333     0.269166666667     0          
O        O      0.713000000000     0.400066666667     0.268700000000     0          
O        O      0.610900000000     0.346066666667     0.201100000000     0          
O        O      0.559000000000     0.439800000000     0.201166666667     0          
O        O      0.652800000000     0.501966666667     0.201166666667     0          
O        O      0.705000000000     0.408333333333     0.201066666667     0          
O        O      0.676700000000     0.559966666667     0.227433333333     0          
O        O      0.614400000000     0.549866666667     0.227500000000     0          
O        O      0.657400000000     0.640666666667     0.226366666667     0          
O        O      0.598300000000     0.616433333333     0.225400000000     0          
O        O      0.760600000000     0.386466666667     0.225500000000     0          
O        O      0.710200000000     0.344966666667     0.227233333333     0          
O        O      0.545500000000     0.502033333333     0.226533333333     0          
O        O      0.501700000000     0.452466666667     0.226466666667     0          
O        O      0.712300000000     0.612766666667     0.207033333333     0          
O        O      0.556200000000     0.567800000000     0.208633333333     0          
T        Si     0.619000000000     0.368400000000     0.292766666667     0          
T        Si     0.581700000000     0.436733333333     0.292700000000     0          
T        Si     0.645100000000     0.478433333333     0.292866666667     0          
T        Si     0.682800000000     0.410133333333     0.293000000000     0          
T        Si     0.648800000000     0.531100000000     0.231333333333     0          
T        Si     0.620200000000     0.650866666667     0.230533333333     0          
T        Si     0.722300000000     0.384900000000     0.230633333333     0          
T        Si     0.539400000000     0.460566666667     0.230966666667     0          
T        Si     0.708900000000     0.570700000000     0.206633333333     0          
T        Si     0.691000000000     0.647966666667     0.206700000000     0          
T        Si     0.593500000000     0.578833333333     0.206966666667     0          
T        Si     0.530900000000     0.535933333333     0.207000000000     0          
O        O      0.409900000000     0.604100000000     0.287266666667     0          
O        O      0.347700000000     0.613266666667     0.281766666667     0          
O        O      0.386400000000     0.665766666667     0.268633333333     0          
O        O      0.388000000000     0.539866666667     0.281066666667     0          
O        O      0.448700000000     0.552500000000     0.268966666667     0          
O        O      0.325800000000     0.548966666667     0.288233333333     0          
O        O      0.348500000000     0.487366666667     0.269166666667     0          
O        O      0.287000000000     0.599933333333     0.268700000000     0          
O        O      0.389100000000     0.653933333333     0.201100000000     0          
O        O      0.441000000000     0.560200000000     0.201166666667     0          
O        O      0.347200000000     0.498033333333     0.201166666667     0          
O        O      0.295000000000     0.591666666667     0.201066666667     0          
O        O      0.323300000000     0.440033333333     0.227433333333     0          
O        O      0.385600000000     0.450133333333     0.227500000000     0          
O        O      0.342600000000     0.359333333333     0.226366666667     0          
O        O      0.401700000000     0.383566666667     0.225400000000     0          
O        O      0.239400000000     0.613533333333     0.225500000000     0          
O        O      0.289800000000     0.655033333333     0.227233333333     0          
O        O      0.454500000000     0.497966666667     0.226533333333     0          
O        O      0.498300000000     0.547533333333     0.226466666667     0          
O        O      0.287700000000     0.387233333333     0.207033333333     0          
O        O      0.443800000000     0.432200000000     0.208633333333     0          
T        Si     0.381000000000     0.631600000000     0.292766666667     0          
T        Si     0.418300000000     0.563266666667     0.292700000000     0          
T        Si     0.354900000000     0.521566666667     0.292866666667     0          
T        Si     0.317200000000     0.589866666667     0.293000000000     0          
T        Si     0.351200000000     0.468900000000     0.231333333333     0          
T        Si     0.379800000000     0.349133333333     0.230533333333     0          
T        Si     0.277700000000     0.615100000000     0.230633333333     0          
T        Si     0.460600000000     0.539433333333     0.230966666667     0          
T        Si     0.291100000000     0.429300000000     0.206633333333     0          
T        Si     0.309000000000     0.352033333333     0.206700000000     0          
T        Si     0.406500000000     0.421166666667     0.206966666667     0          
T        Si     0.469100000000     0.464066666667     0.207000000000     0          
O        O      0.090100000000     0.437433333333     0.046066666667     0          
O        O      0.152300000000     0.446600000000     0.051566666667     0          
O        O      0.113600000000     0.499100000000     0.064700000000     0          
O        O      0.112000000000     0.373200000000     0.052266666667     0          
O        O      0.051300000000     0.385833333333     0.064366666667     0          
O        O      0.174200000000     0.382300000000     0.045100000000     0          
O        O      0.151500000000     0.654033333333     0.064166666667     0          
O        O      0.213000000000     0.433266666667     0.064633333333     0          
O        O      0.110900000000     0.487266666667     0.132233333333     0          
O        O      0.059000000000     0.393533333333     0.132166666667     0          
O        O      0.152800000000     0.664700000000     0.132166666667     0          
O        O      0.205000000000     0.425000000000     0.132266666667     0          
O        O      0.176700000000     0.606700000000     0.105900000000     0          
O        O      0.114400000000     0.616800000000     0.105833333333     0          
O        O      0.157400000000     0.526000000000     0.106966666667     0          
O        O      0.098300000000     0.550233333333     0.107933333333     0          
O        O      0.260600000000     0.446866666667     0.107833333333     0          
O        O      0.210200000000     0.488366666667     0.106100000000     0          
O        O      0.045500000000     0.664633333333     0.106800000000     0          
O        O      0.001700000000     0.380866666667     0.106866666667     0          
O        O      0.212300000000     0.553900000000     0.126300000000     0          
O        O      0.056200000000     0.598866666667     0.124700000000     0          
T        Si     0.119000000000     0.464933333333     0.040566666667     0          
T        Si     0.081700000000     0.396600000000     0.040633333333     0          
T        Si     0.145100000000     0.354900000000     0.040466666667     0          
T        Si     0.182800000000     0.423200000000     0.040333333333     0          
T        Si     0.148800000000     0.635566666667     0.102000000000     0          
T        Si     0.120200000000     0.515800000000     0.102800000000     0          
T        Si     0.222300000000     0.448433333333     0.102700000000     0          
T        Si     0.039400000000     0.372766666667     0.102366666667     0          
T        Si     0.208900000000     0.595966666667     0.126700000000     0          
T        Si     0.191000000000     0.518700000000     0.126633333333     0          
T        Si     0.093500000000     0.587833333333     0.126366666667     0          
T        Si     0.030900000000     0.630733333333     0.126333333333     0          
O        O      0.909900000000     0.562566666667     0.046066666667     0          
O        O      0.847700000000     0.553400000000     0.051566666667     0          
O        O      0.886400000000     0.500900000000     0.064700000000     0          
O        O      0.888000000000     0.626800000000     0.052266666667     0          
O        O      0.948700000000     0.614166666667     0.064366666667     0          
O        O      0.825800000000     0.617700000000     0.045100000000     0          
O        O      0.848500000000     0.345966666667     0.064166666667     0          
O        O      0.787000000000     0.566733333333     0.064633333333     0          
O        O      0.889100000000     0.512733333333     0.132233333333     0          
O        O      0.941000000000     0.606466666667     0.132166666667     0          
O        O      0.847200000000     0.335300000000     0.132166666667     0          
O        O      0.795000000000     0.575000000000     0.132266666667     0          
O        O      0.823300000000     0.393300000000     0.105900000000     0          
O        O      0.885600000000     0.383200000000     0.105833333333     0          
O        O      0.842600000000     0.474000000000     0.106966666667     0          
O        O      0.901700000000     0.449766666667     0.107933333333     0          
O        O      0.739400000000     0.553133333333     0.107833333333     0          
O        O      0.789800000000     0.511633333333     0.106100000000     0          
O        O      0.954500000000     0.335366666667     0.106800000000     0          
O        O      0.998300000000     0.619133333333     0.106866666667     0          
O        O      0.787700000000     0.446100000000     0.126300000000     0          
O        O      0.943800000000     0.401133333333     0.124700000000     0          
T        Si     0.881000000000     0.535066666667     0.040566666667     0          
T        Si     0.918300000000     0.603400000000     0.040633333333     0          
T        Si     0.854900000000     0.645100000000     0.040466666667     0          
T        Si     0.817200000000     0.576800000000     0.040333333333     0          
T        Si     0.851200000000     0.364433333333     0.102000000000     0          
T        Si     0.879800000000     0.484200000000     0.102800000000     0          
T        Si     0.777700000000     0.551566666667     0.102700000000     0          
T        Si     0.960600000000     0.627233333333     0.102366666667     0          
T        Si     0.791100000000     0.404033333333     0.126700000000     0          
T        Si     0.809000000000     0.481300000000     0.126633333333     0          
T        Si     0.906500000000     0.412166666667     0.126366666667     0          
T        Si     0.969100000000     0.369266666667     0.126333333333     0          
O        O      0.409900000000     0.604100000000     0.379400000000     0          
O        O      0.379400000000     0.643200000000     0.333333333333     0          
O        O      0.347700000000     0.613266666667     0.384900000000     0          
O        O      0.386400000000     0.665766666667     0.398033333333     0          
O        O      0.426400000000     0.556000000000     0.333333333333     0          
O        O      0.388000000000     0.539866666667     0.385600000000     0          
O        O      0.448700000000     0.552500000000     0.397700000000     0          
O        O      0.357500000000     0.509866666667     0.333333333333     0          
O        O      0.325800000000     0.548966666667     0.378433333333     0          
O        O      0.348500000000     0.487366666667     0.397500000000     0          
O        O      0.308400000000     0.597600000000     0.333333333333     0          
O        O      0.287000000000     0.599933333333     0.397966666667     0          
O        O      0.397100000000     0.595200000000     0.500000000000     0          
O        O      0.340600000000     0.625300000000     0.500000000000     0          
O        O      0.389100000000     0.653933333333     0.465566666667     0          
O        O      0.395500000000     0.526533333333     0.500000000000     0          
O        O      0.441000000000     0.560200000000     0.465500000000     0          
O        O      0.339000000000     0.556666666667     0.500000000000     0          
O        O      0.347200000000     0.498033333333     0.465500000000     0          
O        O      0.295000000000     0.591666666667     0.465600000000     0          
O        O      0.323300000000     0.440033333333     0.439233333333     0          
O        O      0.385600000000     0.450133333333     0.439166666667     0          
O        O      0.342600000000     0.359333333333     0.440300000000     0          
O        O      0.401700000000     0.383566666667     0.441266666667     0          
O        O      0.239400000000     0.613533333333     0.441166666667     0          
O        O      0.289800000000     0.655033333333     0.439433333333     0          
O        O      0.454500000000     0.497966666667     0.440133333333     0          
O        O      0.498300000000     0.547533333333     0.440200000000     0          
O        O      0.293400000000     0.442666666667     0.500000000000     0          
O        O      0.287700000000     0.387233333333     0.459633333333     0          
O        O      0.315400000000     0.340500000000     0.500000000000     0          
O        O      0.395200000000     0.419166666667     0.500000000000     0          
O        O      0.443800000000     0.432200000000     0.458033333333     0          
O        O      0.476600000000     0.473400000000     0.500000000000     0          
T        Si     0.381000000000     0.631600000000     0.373900000000     0          
T        Si     0.418300000000     0.563266666667     0.373966666667     0          
T        Si     0.354900000000     0.521566666667     0.373800000000     0          
T        Si     0.317200000000     0.589866666667     0.373666666667     0          
T        Si     0.378700000000     0.632300000000     0.500000000000     0          
T        Si     0.418700000000     0.560300000000     0.500000000000     0          
T        Si     0.357400000000     0.519566666667     0.500000000000     0          
T        Si     0.317400000000     0.591566666667     0.500000000000     0          
T        Si     0.351200000000     0.468900000000     0.435333333333     0          
T        Si     0.379800000000     0.349133333333     0.436133333333     0          
T        Si     0.277700000000     0.615100000000     0.436033333333     0          
T        Si     0.460600000000     0.539433333333     0.435700000000     0          
T        Si     0.291100000000     0.429300000000     0.460033333333     0          
T        Si     0.309000000000     0.352033333333     0.459966666667     0          
T        Si     0.406500000000     0.421166666667     0.459700000000     0          
T        Si     0.469100000000     0.464066666667     0.459666666667     0          
O        O      0.590100000000     0.395900000000     0.379400000000     0          
O        O      0.620600000000     0.356800000000     0.333333333333     0          
O        O      0.652300000000     0.386733333333     0.384900000000     0          
O        O      0.613600000000     0.334233333333     0.398033333333     0          
O        O      0.573600000000     0.444000000000     0.333333333333     0          
O        O      0.612000000000     0.460133333333     0.385600000000     0          
O        O      0.551300000000     0.447500000000     0.397700000000     0          
O        O      0.642500000000     0.490133333333     0.333333333333     0          
O        O      0.674200000000     0.451033333333     0.378433333333     0          
O        O      0.651500000000     0.512633333333     0.397500000000     0          
O        O      0.691600000000     0.402400000000     0.333333333333     0          
O        O      0.713000000000     0.400066666667     0.397966666667     0          
O        O      0.602900000000     0.404800000000     0.500000000000     0          
O        O      0.659400000000     0.374700000000     0.500000000000     0          
O        O      0.610900000000     0.346066666667     0.465566666667     0          
O        O      0.604500000000     0.473466666667     0.500000000000     0          
O        O      0.559000000000     0.439800000000     0.465500000000     0          
O        O      0.661000000000     0.443333333333     0.500000000000     0          
O        O      0.652800000000     0.501966666667     0.465500000000     0          
O        O      0.705000000000     0.408333333333     0.465600000000     0          
O        O      0.676700000000     0.559966666667     0.439233333333     0          
O        O      0.614400000000     0.549866666667     0.439166666667     0          
O        O      0.657400000000     0.640666666667     0.440300000000     0          
O        O      0.598300000000     0.616433333333     0.441266666667     0          
O        O      0.760600000000     0.386466666667     0.441166666667     0          
O        O      0.710200000000     0.344966666667     0.439433333333     0          
O        O      0.545500000000     0.502033333333     0.440133333333     0          
O        O      0.501700000000     0.452466666667     0.440200000000     0          
O        O      0.706600000000     0.557333333333     0.500000000000     0          
O        O      0.712300000000     0.612766666667     0.459633333333     0          
O        O      0.684600000000     0.659500000000     0.500000000000     0          
O        O      0.604800000000     0.580833333333     0.500000000000     0          
O        O      0.556200000000     0.567800000000     0.458033333333     0          
O        O      0.523400000000     0.526600000000     0.500000000000     0          
T        Si     0.619000000000     0.368400000000     0.373900000000     0          
T        Si     0.581700000000     0.436733333333     0.373966666667     0          
T        Si     0.645100000000     0.478433333333     0.373800000000     0          
T        Si     0.682800000000     0.410133333333     0.373666666667     0          
T        Si     0.621300000000     0.367700000000     0.500000000000     0          
T        Si     0.581300000000     0.439700000000     0.500000000000     0          
T        Si     0.642600000000     0.480433333333     0.500000000000     0          
T        Si     0.682600000000     0.408433333333     0.500000000000     0          
T        Si     0.648800000000     0.531100000000     0.435333333333     0          
T        Si     0.620200000000     0.650866666667     0.436133333333     0          
T        Si     0.722300000000     0.384900000000     0.436033333333     0          
T        Si     0.539400000000     0.460566666667     0.435700000000     0          
T        Si     0.708900000000     0.570700000000     0.460033333333     0          
T        Si     0.691000000000     0.647966666667     0.459966666667     0          
T        Si     0.593500000000     0.578833333333     0.459700000000     0          
T        Si     0.530900000000     0.535933333333     0.459666666667     0          
O        O      0.909900000000     0.562566666667     0.620600000000     0          
O        O      0.879400000000     0.523466666667     0.333333333333     0          
O        O      0.847700000000     0.553400000000     0.615100000000     0          
O        O      0.886400000000     0.500900000000     0.601966666667     0          
O        O      0.926400000000     0.610666666667     0.333333333333     0          
O        O      0.888000000000     0.626800000000     0.614400000000     0          
O        O      0.948700000000     0.614166666667     0.602300000000     0          
O        O      0.857500000000     0.656800000000     0.333333333333     0          
O        O      0.825800000000     0.617700000000     0.621566666667     0          
O        O      0.848500000000     0.345966666667     0.602500000000     0          
O        O      0.808400000000     0.569066666667     0.333333333333     0          
O        O      0.787000000000     0.566733333333     0.602033333333     0          
O        O      0.897100000000     0.571466666667     0.500000000000     0          
O        O      0.840600000000     0.541366666667     0.500000000000     0          
O        O      0.889100000000     0.512733333333     0.534433333333     0          
O        O      0.895500000000     0.640133333333     0.500000000000     0          
O        O      0.941000000000     0.606466666667     0.534500000000     0          
O        O      0.839000000000     0.610000000000     0.500000000000     0          
O        O      0.847200000000     0.335300000000     0.534500000000     0          
O        O      0.795000000000     0.575000000000     0.534400000000     0          
O        O      0.823300000000     0.393300000000     0.560766666667     0          
O        O      0.885600000000     0.383200000000     0.560833333333     0          
O        O      0.842600000000     0.474000000000     0.559700000000     0          
O        O      0.901700000000     0.449766666667     0.558733333333     0          
O        O      0.739400000000     0.553133333333     0.558833333333     0          
O        O      0.789800000000     0.511633333333     0.560566666667     0          
O        O      0.954500000000     0.335366666667     0.559866666667     0          
O        O      0.998300000000     0.619133333333     0.559800000000     0          
O        O      0.793400000000     0.390666666667     0.500000000000     0          
O        O      0.787700000000     0.446100000000     0.540366666667     0          
O        O      0.815400000000     0.492833333333     0.500000000000     0          
O        O      0.895200000000     0.414166666667     0.500000000000     0          
O        O      0.943800000000     0.401133333333     0.541966666667     0          
O        O      0.976600000000     0.359933333333     0.500000000000     0          
T        Si     0.881000000000     0.535066666667     0.626100000000     0          
T        Si     0.918300000000     0.603400000000     0.626033333333     0          
T        Si     0.854900000000     0.645100000000     0.626200000000     0          
T        Si     0.817200000000     0.576800000000     0.626333333333     0          
T        Si     0.878700000000     0.534366666667     0.500000000000     0          
T        Si     0.918700000000     0.606366666667     0.500000000000     0          
T        Si     0.857400000000     0.647100000000     0.500000000000     0          
T        Si     0.817400000000     0.575100000000     0.500000000000     0          
T        Si     0.851200000000     0.364433333333     0.564666666667     0          
T        Si     0.879800000000     0.484200000000     0.563866666667     0          
T        Si     0.777700000000     0.551566666667     0.563966666667     0          
T        Si     0.960600000000     0.627233333333     0.564300000000     0          
T        Si     0.791100000000     0.404033333333     0.539966666667     0          
T        Si     0.809000000000     0.481300000000     0.540033333333     0          
T        Si     0.906500000000     0.412166666667     0.540300000000     0          
T        Si     0.969100000000     0.369266666667     0.540333333333     0          
O        O      0.090100000000     0.437433333333     0.620600000000     0          
O        O      0.120600000000     0.476533333333     0.333333333333     0          
O        O      0.152300000000     0.446600000000     0.615100000000     0          
O        O      0.113600000000     0.499100000000     0.601966666667     0          
O        O      0.073600000000     0.389333333333     0.333333333333     0          
O        O      0.112000000000     0.373200000000     0.614400000000     0          
O        O      0.051300000000     0.385833333333     0.602300000000     0          
O        O      0.142500000000     0.343200000000     0.333333333333     0          
O        O      0.174200000000     0.382300000000     0.621566666667     0          
O        O      0.151500000000     0.654033333333     0.602500000000     0          
O        O      0.191600000000     0.430933333333     0.333333333333     0          
O        O      0.213000000000     0.433266666667     0.602033333333     0          
O        O      0.102900000000     0.428533333333     0.500000000000     0          
O        O      0.159400000000     0.458633333333     0.500000000000     0          
O        O      0.110900000000     0.487266666667     0.534433333333     0          
O        O      0.104500000000     0.359866666667     0.500000000000     0          
O        O      0.059000000000     0.393533333333     0.534500000000     0          
O        O      0.161000000000     0.390000000000     0.500000000000     0          
O        O      0.152800000000     0.664700000000     0.534500000000     0          
O        O      0.205000000000     0.425000000000     0.534400000000     0          
O        O      0.176700000000     0.606700000000     0.560766666667     0          
O        O      0.114400000000     0.616800000000     0.560833333333     0          
O        O      0.157400000000     0.526000000000     0.559700000000     0          
O        O      0.098300000000     0.550233333333     0.558733333333     0          
O        O      0.260600000000     0.446866666667     0.558833333333     0          
O        O      0.210200000000     0.488366666667     0.560566666667     0          
O        O      0.045500000000     0.664633333333     0.559866666667     0          
O        O      0.001700000000     0.380866666667     0.559800000000     0          
O        O      0.206600000000     0.609333333333     0.500000000000     0          
O        O      0.212300000000     0.553900000000     0.540366666667     0          
O        O      0.184600000000     0.507166666667     0.500000000000     0          
O        O      0.104800000000     0.585833333333     0.500000000000     0          
O        O      0.056200000000     0.598866666667     0.541966666667     0          
O        O      0.023400000000     0.640066666667     0.500000000000     0          
T        Si     0.119000000000     0.464933333333     0.626100000000     0          
T        Si     0.081700000000     0.396600000000     0.626033333333     0          
T        Si     0.145100000000     0.354900000000     0.626200000000     0          
T        Si     0.182800000000     0.423200000000     0.626333333333     0          
T        Si     0.121300000000     0.465633333333     0.500000000000     0          
T        Si     0.081300000000     0.393633333333     0.500000000000     0          
T        Si     0.142600000000     0.352900000000     0.500000000000     0          
T        Si     0.182600000000     0.424900000000     0.500000000000     0          
T        Si     0.148800000000     0.635566666667     0.564666666667     0          
T        Si     0.120200000000     0.515800000000     0.563866666667     0          
T        Si     0.222300000000     0.448433333333     0.563966666667     0          
T        Si     0.039400000000     0.372766666667     0.564300000000     0          
T        Si     0.208900000000     0.595966666667     0.539966666667     0          
T        Si     0.191000000000     0.518700000000     0.540033333333     0          
T        Si     0.093500000000     0.587833333333     0.540300000000     0          
T        Si     0.030900000000     0.630733333333     0.540333333333     0          
O        O      0.590100000000     0.395900000000     0.620600000000     0          
O        O      0.652300000000     0.386733333333     0.615100000000     0          
O        O      0.613600000000     0.334233333333     0.601966666667     0          
O        O      0.612000000000     0.460133333333     0.614400000000     0          
O        O      0.551300000000     0.447500000000     0.602300000000     0          
O        O      0.674200000000     0.451033333333     0.621566666667     0          
O        O      0.651500000000     0.512633333333     0.602500000000     0          
O        O      0.713000000000     0.400066666667     0.602033333333     0          
O        O      0.610900000000     0.346066666667     0.534433333333     0          
O        O      0.559000000000     0.439800000000     0.534500000000     0          
O        O      0.652800000000     0.501966666667     0.534500000000     0          
O        O      0.705000000000     0.408333333333     0.534400000000     0          
O        O      0.676700000000     0.559966666667     0.560766666667     0          
O        O      0.614400000000     0.549866666667     0.560833333333     0          
O        O      0.657400000000     0.640666666667     0.559700000000     0          
O        O      0.598300000000     0.616433333333     0.558733333333     0          
O        O      0.760600000000     0.386466666667     0.558833333333     0          
O        O      0.710200000000     0.344966666667     0.560566666667     0          
O        O      0.545500000000     0.502033333333     0.559866666667     0          
O        O      0.501700000000     0.452466666667     0.559800000000     0          
O        O      0.712300000000     0.612766666667     0.540366666667     0          
O        O      0.556200000000     0.567800000000     0.541966666667     0          
T        Si     0.619000000000     0.368400000000     0.626100000000     0          
T        Si     0.581700000000     0.436733333333     0.626033333333     0          
T        Si     0.645100000000     0.478433333333     0.626200000000     0          
T        Si     0.682800000000     0.410133333333     0.626333333333     0          
T        Si     0.648800000000     0.531100000000     0.564666666667     0          
T        Si     0.620200000000     0.650866666667     0.563866666667     0          
T        Si     0.722300000000     0.384900000000     0.563966666667     0          
T        Si     0.539400000000     0.460566666667     0.564300000000     0          
T        Si     0.708900000000     0.570700000000     0.539966666667     0          
T        Si     0.691000000000     0.647966666667     0.540033333333     0          
T        Si     0.593500000000     0.578833333333     0.540300000000     0          
T        Si     0.530900000000     0.535933333333     0.540333333333     0          
O        O      0.409900000000     0.604100000000     0.620600000000     0          
O        O      0.347700000000     0.613266666667     0.615100000000     0          
O        O      0.386400000000     0.665766666667     0.601966666667     0          
O        O      0.388000000000     0.539866666667     0.614400000000     0          
O        O      0.448700000000     0.552500000000     0.602300000000     0          
O        O      0.325800000000     0.548966666667     0.621566666667     0          
O        O      0.348500000000     0.487366666667     0.602500000000     0          
O        O      0.287000000000     0.599933333333     0.602033333333     0          
O        O      0.389100000000     0.653933333333     0.534433333333     0          
O        O      0.441000000000     0.560200000000     0.534500000000     0          
O        O      0.347200000000     0.498033333333     0.534500000000     0          
O        O      0.295000000000     0.591666666667     0.534400000000     0          
O        O      0.323300000000     0.440033333333     0.560766666667     0          
O        O      0.385600000000     0.450133333333     0.560833333333     0          
O        O      0.342600000000     0.359333333333     0.559700000000     0          
O        O      0.401700000000     0.383566666667     0.558733333333     0          
O        O      0.239400000000     0.613533333333     0.558833333333     0          
O        O      0.289800000000     0.655033333333     0.560566666667     0          
O        O      0.454500000000     0.497966666667     0.559866666667     0          
O        O      0.498300000000     0.547533333333     0.559800000000     0          
O        O      0.287700000000     0.387233333333     0.540366666667     0          
O        O      0.443800000000     0.432200000000     0.541966666667     0          
T        Si     0.381000000000     0.631600000000     0.626100000000     0          
T        Si     0.418300000000     0.563266666667     0.626033333333     0          
T        Si     0.354900000000     0.521566666667     0.626200000000     0          
T        Si     0.317200000000     0.589866666667     0.626333333333     0          
T        Si     0.351200000000     0.468900000000     0.564666666667     0          
T        Si     0.379800000000     0.349133333333     0.563866666667     0          
T        Si     0.277700000000     0.615100000000     0.563966666667     0          
T        Si     0.460600000000     0.539433333333     0.564300000000     0          
T        Si     0.291100000000     0.429300000000     0.539966666667     0          
T        Si     0.309000000000     0.352033333333     0.540033333333     0          
T        Si     0.406500000000     0.421166666667     0.540300000000     0          
T        Si     0.469100000000     0.464066666667     0.540333333333     0          
O        O      0.090100000000     0.437433333333     0.379400000000     0          
O        O      0.152300000000     0.446600000000     0.384900000000     0          
O        O      0.113600000000     0.499100000000     0.398033333333     0          
O        O      0.112000000000     0.373200000000     0.385600000000     0          
O        O      0.051300000000     0.385833333333     0.397700000000     0          
O        O      0.174200000000     0.382300000000     0.378433333333     0          
O        O      0.151500000000     0.654033333333     0.397500000000     0          
O        O      0.213000000000     0.433266666667     0.397966666667     0          
O        O      0.110900000000     0.487266666667     0.465566666667     0          
O        O      0.059000000000     0.393533333333     0.465500000000     0          
O        O      0.152800000000     0.664700000000     0.465500000000     0          
O        O      0.205000000000     0.425000000000     0.465600000000     0          
O        O      0.176700000000     0.606700000000     0.439233333333     0          
O        O      0.114400000000     0.616800000000     0.439166666667     0          
O        O      0.157400000000     0.526000000000     0.440300000000     0          
O        O      0.098300000000     0.550233333333     0.441266666667     0          
O        O      0.260600000000     0.446866666667     0.441166666667     0          
O        O      0.210200000000     0.488366666667     0.439433333333     0          
O        O      0.045500000000     0.664633333333     0.440133333333     0          
O        O      0.001700000000     0.380866666667     0.440200000000     0          
O        O      0.212300000000     0.553900000000     0.459633333333     0          
O        O      0.056200000000     0.598866666667     0.458033333333     0          
T        Si     0.119000000000     0.464933333333     0.373900000000     0          
T        Si     0.081700000000     0.396600000000     0.373966666667     0          
T        Si     0.145100000000     0.354900000000     0.373800000000     0          
T        Si     0.182800000000     0.423200000000     0.373666666667     0          
T        Si     0.148800000000     0.635566666667     0.435333333333     0          
T        Si     0.120200000000     0.515800000000     0.436133333333     0          
T        Si     0.222300000000     0.448433333333     0.436033333333     0          
T        Si     0.039400000000     0.372766666667     0.435700000000     0          
T        Si     0.208900000000     0.595966666667     0.460033333333     0          
T        Si     0.191000000000     0.518700000000     0.459966666667     0          
T        Si     0.093500000000     0.587833333333     0.459700000000     0          
T        Si     0.030900000000     0.630733333333     0.459666666667     0          
O        O      0.909900000000     0.562566666667     0.379400000000     0          
O        O      0.847700000000     0.553400000000     0.384900000000     0          
O        O      0.886400000000     0.500900000000     0.398033333333     0          
O        O      0.888000000000     0.626800000000     0.385600000000     0          
O        O      0.948700000000     0.614166666667     0.397700000000     0          
O        O      0.825800000000     0.617700000000     0.378433333333     0          
O        O      0.848500000000     0.345966666667     0.397500000000     0          
O        O      0.787000000000     0.566733333333     0.397966666667     0          
O        O      0.889100000000     0.512733333333     0.465566666667     0          
O        O      0.941000000000     0.606466666667     0.465500000000     0          
O        O      0.847200000000     0.335300000000     0.465500000000     0          
O        O      0.795000000000     0.575000000000     0.465600000000     0          
O        O      0.823300000000     0.393300000000     0.439233333333     0          
O        O      0.885600000000     0.383200000000     0.439166666667     0          
O        O      0.842600000000     0.474000000000     0.440300000000     0          
O        O      0.901700000000     0.449766666667     0.441266666667     0          
O        O      0.739400000000     0.553133333333     0.441166666667     0          
O        O      0.789800000000     0.511633333333     0.439433333333     0          
O        O      0.954500000000     0.335366666667     0.440133333333     0          
O        O      0.998300000000     0.619133333333     0.440200000000     0          
O        O      0.787700000000     0.446100000000     0.459633333333     0          
O        O      0.943800000000     0.401133333333     0.458033333333     0          
T        Si     0.881000000000     0.535066666667     0.373900000000     0          
T        Si     0.918300000000     0.603400000000     0.373966666667     0          
T        Si     0.854900000000     0.645100000000     0.373800000000     0          
T        Si     0.817200000000     0.576800000000     0.373666666667     0          
T        Si     0.851200000000     0.364433333333     0.435333333333     0          
T        Si     0.879800000000     0.484200000000     0.436133333333     0          
T        Si     0.777700000000     0.551566666667     0.436033333333     0          
T        Si     0.960600000000     0.627233333333     0.435700000000     0          
T        Si     0.791100000000     0.404033333333     0.460033333333     0          
T        Si     0.809000000000     0.481300000000     0.459966666667     0          
T        Si     0.906500000000     0.412166666667     0.459700000000     0          
T        Si     0.969100000000     0.369266666667     0.459666666667     0          
O        O      0.409900000000     0.604100000000     0.712733333333     0          
O        O      0.379400000000     0.643200000000     0.666666666667     0          
O        O      0.347700000000     0.613266666667     0.718233333333     0          
O        O      0.386400000000     0.665766666667     0.731366666667     0          
O        O      0.426400000000     0.556000000000     0.666666666667     0          
O        O      0.388000000000     0.539866666667     0.718933333333     0          
O        O      0.448700000000     0.552500000000     0.731033333333     0          
O        O      0.357500000000     0.509866666667     0.666666666667     0          
O        O      0.325800000000     0.548966666667     0.711766666667     0          
O        O      0.348500000000     0.487366666667     0.730833333333     0          
O        O      0.308400000000     0.597600000000     0.666666666667     0          
O        O      0.287000000000     0.599933333333     0.731300000000     0          
O        O      0.397100000000     0.595200000000     0.833333333333     0          
O        O      0.340600000000     0.625300000000     0.833333333333     0          
O        O      0.389100000000     0.653933333333     0.798900000000     0          
O        O      0.395500000000     0.526533333333     0.833333333333     0          
O        O      0.441000000000     0.560200000000     0.798833333333     0          
O        O      0.339000000000     0.556666666667     0.833333333333     0          
O        O      0.347200000000     0.498033333333     0.798833333333     0          
O        O      0.295000000000     0.591666666667     0.798933333333     0          
O        O      0.323300000000     0.440033333333     0.772566666667     0          
O        O      0.385600000000     0.450133333333     0.772500000000     0          
O        O      0.342600000000     0.359333333333     0.773633333333     0          
O        O      0.401700000000     0.383566666667     0.774600000000     0          
O        O      0.239400000000     0.613533333333     0.774500000000     0          
O        O      0.289800000000     0.655033333333     0.772766666667     0          
O        O      0.454500000000     0.497966666667     0.773466666667     0          
O        O      0.498300000000     0.547533333333     0.773533333333     0          
O        O      0.293400000000     0.442666666667     0.833333333333     0          
O        O      0.287700000000     0.387233333333     0.792966666667     0          
O        O      0.315400000000     0.340500000000     0.833333333333     0          
O        O      0.395200000000     0.419166666667     0.833333333333     0          
O        O      0.443800000000     0.432200000000     0.791366666667     0          
O        O      0.476600000000     0.473400000000     0.833333333333     0          
T        Si     0.381000000000     0.631600000000     0.707233333333     0          
T        Si     0.418300000000     0.563266666667     0.707300000000     0          
T        Si     0.354900000000     0.521566666667     0.707133333333     0          
T        Si     0.317200000000     0.589866666667     0.707000000000     0          
T        Si     0.378700000000     0.632300000000     0.833333333333     0          
T        Si     0.418700000000     0.560300000000     0.833333333333     0          
T        Si     0.357400000000     0.519566666667     0.833333333333     0          
T        Si     0.317400000000     0.591566666667     0.833333333333     0          
T        Si     0.351200000000     0.468900000000     0.768666666667     0          
T        Si     0.379800000000     0.349133333333     0.769466666667     0          
T        Si     0.277700000000     0.615100000000     0.769366666667     0          
T        Si     0.460600000000     0.539433333333     0.769033333333     0          
T        Si     0.291100000000     0.429300000000     0.793366666667     0          
T        Si     0.309000000000     0.352033333333     0.793300000000     0          
T        Si     0.406500000000     0.421166666667     0.793033333333     0          
T        Si     0.469100000000     0.464066666667     0.793000000000     0          
O        O      0.590100000000     0.395900000000     0.712733333333     0          
O        O      0.620600000000     0.356800000000     0.666666666667     0          
O        O      0.652300000000     0.386733333333     0.718233333333     0          
O        O      0.613600000000     0.334233333333     0.731366666667     0          
O        O      0.573600000000     0.444000000000     0.666666666667     0          
O        O      0.612000000000     0.460133333333     0.718933333333     0          
O        O      0.551300000000     0.447500000000     0.731033333333     0          
O        O      0.642500000000     0.490133333333     0.666666666667     0          
O        O      0.674200000000     0.451033333333     0.711766666667     0          
O        O      0.651500000000     0.512633333333     0.730833333333     0          
O        O      0.691600000000     0.402400000000     0.666666666667     0          
O        O      0.713000000000     0.400066666667     0.731300000000     0          
O        O      0.602900000000     0.404800000000     0.833333333333     0          
O        O      0.659400000000     0.374700000000     0.833333333333     0          
O        O      0.610900000000     0.346066666667     0.798900000000     0          
O        O      0.604500000000     0.473466666667     0.833333333333     0          
O        O      0.559000000000     0.439800000000     0.798833333333     0          
O        O      0.661000000000     0.443333333333     0.833333333333     0          
O        O      0.652800000000     0.501966666667     0.798833333333     0          
O        O      0.705000000000     0.408333333333     0.798933333333     0          
O        O      0.676700000000     0.559966666667     0.772566666667     0          
O        O      0.614400000000     0.549866666667     0.772500000000     0          
O        O      0.657400000000     0.640666666667     0.773633333333     0          
O        O      0.598300000000     0.616433333333     0.774600000000     0          
O        O      0.760600000000     0.386466666667     0.774500000000     0          
O        O      0.710200000000     0.344966666667     0.772766666667     0          
O        O      0.545500000000     0.502033333333     0.773466666667     0          
O        O      0.501700000000     0.452466666667     0.773533333333     0          
O        O      0.706600000000     0.557333333333     0.833333333333     0          
O        O      0.712300000000     0.612766666667     0.792966666667     0          
O        O      0.684600000000     0.659500000000     0.833333333333     0          
O        O      0.604800000000     0.580833333333     0.833333333333     0          
O        O      0.556200000000     0.567800000000     0.791366666667     0          
O        O      0.523400000000     0.526600000000     0.833333333333     0          
T        Si     0.619000000000     0.368400000000     0.707233333333     0          
T        Si     0.581700000000     0.436733333333     0.707300000000     0          
T        Si     0.645100000000     0.478433333333     0.707133333333     0          
T        Si     0.682800000000     0.410133333333     0.707000000000     0          
T        Si     0.621300000000     0.367700000000     0.833333333333     0          
T        Si     0.581300000000     0.439700000000     0.833333333333     0          
T        Si     0.642600000000     0.480433333333     0.833333333333     0          
T        Si     0.682600000000     0.408433333333     0.833333333333     0          
T        Si     0.648800000000     0.531100000000     0.768666666667     0          
T        Si     0.620200000000     0.650866666667     0.769466666667     0          
T        Si     0.722300000000     0.384900000000     0.769366666667     0          
T        Si     0.539400000000     0.460566666667     0.769033333333     0          
T        Si     0.708900000000     0.570700000000     0.793366666667     0          
T        Si     0.691000000000     0.647966666667     0.793300000000     0          
T        Si     0.593500000000     0.578833333333     0.793033333333     0          
T        Si     0.530900000000     0.535933333333     0.793000000000     0          
O        O      0.909900000000     0.562566666667     0.953933333333     0          
O        O      0.879400000000     0.523466666667     0.666666666667     0          
O        O      0.847700000000     0.553400000000     0.948433333333     0          
O        O      0.886400000000     0.500900000000     0.935300000000     0          
O        O      0.926400000000     0.610666666667     0.666666666667     0          
O        O      0.888000000000     0.626800000000     0.947733333333     0          
O        O      0.948700000000     0.614166666667     0.935633333333     0          
O        O      0.857500000000     0.656800000000     0.666666666667     0          
O        O      0.825800000000     0.617700000000     0.954900000000     0          
O        O      0.848500000000     0.345966666667     0.935833333333     0          
O        O      0.808400000000     0.569066666667     0.666666666667     0          
O        O      0.787000000000     0.566733333333     0.935366666667     0          
O        O      0.897100000000     0.571466666667     0.833333333333     0          
O        O      0.840600000000     0.541366666667     0.833333333333     0          
O        O      0.889100000000     0.512733333333     0.867766666667     0          
O        O      0.895500000000     0.640133333333     0.833333333333     0          
O        O      0.941000000000     0.606466666667     0.867833333333     0          
O        O      0.839000000000     0.610000000000     0.833333333333     0          
O        O      0.847200000000     0.335300000000     0.867833333333     0          
O        O      0.795000000000     0.575000000000     0.867733333333     0          
O        O      0.823300000000     0.393300000000     0.894100000000     0          
O        O      0.885600000000     0.383200000000     0.894166666667     0          
O        O      0.842600000000     0.474000000000     0.893033333333     0          
O        O      0.901700000000     0.449766666667     0.892066666667     0          
O        O      0.739400000000     0.553133333333     0.892166666667     0          
O        O      0.789800000000     0.511633333333     0.893900000000     0          
O        O      0.954500000000     0.335366666667     0.893200000000     0          
O        O      0.998300000000     0.619133333333     0.893133333333     0          
O        O      0.793400000000     0.390666666667     0.833333333333     0          
O        O      0.787700000000     0.446100000000     0.873700000000     0          
O        O      0.815400000000     0.492833333333     0.833333333333     0          
O        O      0.895200000000     0.414166666667     0.833333333333     0          
O        O      0.943800000000     0.401133333333     0.875300000000     0          
O        O      0.976600000000     0.359933333333     0.833333333333     0          
T        Si     0.881000000000     0.535066666667     0.959433333333     0          
T        Si     0.918300000000     0.603400000000     0.959366666667     0          
T        Si     0.854900000000     0.645100000000     0.959533333333     0          
T        Si     0.817200000000     0.576800000000     0.959666666667     0          
T        Si     0.878700000000     0.534366666667     0.833333333333     0          
T        Si     0.918700000000     0.606366666667     0.833333333333     0          
T        Si     0.857400000000     0.647100000000     0.833333333333     0          
T        Si     0.817400000000     0.575100000000     0.833333333333     0          
T        Si     0.851200000000     0.364433333333     0.898000000000     0          
T        Si     0.879800000000     0.484200000000     0.897200000000     0          
T        Si     0.777700000000     0.551566666667     0.897300000000     0          
T        Si     0.960600000000     0.627233333333     0.897633333333     0          
T        Si     0.791100000000     0.404033333333     0.873300000000     0          
T        Si     0.809000000000     0.481300000000     0.873366666667     0          
T        Si     0.906500000000     0.412166666667     0.873633333333     0          
T        Si     0.969100000000     0.369266666667     0.873666666667     0          
O        O      0.090100000000     0.437433333333     0.953933333333     0          
O        O      0.120600000000     0.476533333333     0.666666666667     0          
O        O      0.152300000000     0.446600000000     0.948433333333     0          
O        O      0.113600000000     0.499100000000     0.935300000000     0          
O        O      0.073600000000     0.389333333333     0.666666666667     0          
O        O      0.112000000000     0.373200000000     0.947733333333     0          
O        O      0.051300000000     0.385833333333     0.935633333333     0          
O        O      0.142500000000     0.343200000000     0.666666666667     0          
O        O      0.174200000000     0.382300000000     0.954900000000     0          
O        O      0.151500000000     0.654033333333     0.935833333333     0          
O        O      0.191600000000     0.430933333333     0.666666666667     0          
O        O      0.213000000000     0.433266666667     0.935366666667     0          
O        O      0.102900000000     0.428533333333     0.833333333333     0          
O        O      0.159400000000     0.458633333333     0.833333333333     0          
O        O      0.110900000000     0.487266666667     0.867766666667     0          
O        O      0.104500000000     0.359866666667     0.833333333333     0          
O        O      0.059000000000     0.393533333333     0.867833333333     0          
O        O      0.161000000000     0.390000000000     0.833333333333     0          
O        O      0.152800000000     0.664700000000     0.867833333333     0          
O        O      0.205000000000     0.425000000000     0.867733333333     0          
O        O      0.176700000000     0.606700000000     0.894100000000     0          
O        O      0.114400000000     0.616800000000     0.894166666667     0          
O        O      0.157400000000     0.526000000000     0.893033333333     0          
O        O      0.098300000000     0.550233333333     0.892066666667     0          
O        O      0.260600000000     0.446866666667     0.892166666667     0          
O        O      0.210200000000     0.488366666667     0.893900000000     0          
O        O      0.045500000000     0.664633333333     0.893200000000     0          
O        O      0.001700000000     0.380866666667     0.893133333333     0          
O        O      0.206600000000     0.609333333333     0.833333333333     0          
O        O      0.212300000000     0.553900000000     0.873700000000     0          
O        O      0.184600000000     0.507166666667     0.833333333333     0          
O        O      0.104800000000     0.585833333333     0.833333333333     0          
O        O      0.056200000000     0.598866666667     0.875300000000     0          
O        O      0.023400000000     0.640066666667     0.833333333333     0          
T        Si     0.119000000000     0.464933333333     0.959433333333     0          
T        Si     0.081700000000     0.396600000000     0.959366666667     0          
T        Si     0.145100000000     0.354900000000     0.959533333333     0          
T        Si     0.182800000000     0.423200000000     0.959666666667     0          
T        Si     0.121300000000     0.465633333333     0.833333333333     0          
T        Si     0.081300000000     0.393633333333     0.833333333333     0          
T        Si     0.142600000000     0.352900000000     0.833333333333     0          
T        Si     0.182600000000     0.424900000000     0.833333333333     0          
T        Si     0.148800000000     0.635566666667     0.898000000000     0          
T        Si     0.120200000000     0.515800000000     0.897200000000     0          
T        Si     0.222300000000     0.448433333333     0.897300000000     0          
T        Si     0.039400000000     0.372766666667     0.897633333333     0          
T        Si     0.208900000000     0.595966666667     0.873300000000     0          
T        Si     0.191000000000     0.518700000000     0.873366666667     0          
T        Si     0.093500000000     0.587833333333     0.873633333333     0          
T        Si     0.030900000000     0.630733333333     0.873666666667     0          
O        O      0.590100000000     0.395900000000     0.953933333333     0          
O        O      0.652300000000     0.386733333333     0.948433333333     0          
O        O      0.613600000000     0.334233333333     0.935300000000     0          
O        O      0.612000000000     0.460133333333     0.947733333333     0          
O        O      0.551300000000     0.447500000000     0.935633333333     0          
O        O      0.674200000000     0.451033333333     0.954900000000     0          
O        O      0.651500000000     0.512633333333     0.935833333333     0          
O        O      0.713000000000     0.400066666667     0.935366666667     0          
O        O      0.610900000000     0.346066666667     0.867766666667     0          
O        O      0.559000000000     0.439800000000     0.867833333333     0          
O        O      0.652800000000     0.501966666667     0.867833333333     0          
O        O      0.705000000000     0.408333333333     0.867733333333     0          
O        O      0.676700000000     0.559966666667     0.894100000000     0          
O        O      0.614400000000     0.549866666667     0.894166666667     0          
O        O      0.657400000000     0.640666666667     0.893033333333     0          
O        O      0.598300000000     0.616433333333     0.892066666667     0          
O        O      0.760600000000     0.386466666667     0.892166666667     0          
O        O      0.710200000000     0.344966666667     0.893900000000     0          
O        O      0.545500000000     0.502033333333     0.893200000000     0          
O        O      0.501700000000     0.452466666667     0.893133333333     0          
O        O      0.712300000000     0.612766666667     0.873700000000     0          
O        O      0.556200000000     0.567800000000     0.875300000000     0          
T        Si     0.619000000000     0.368400000000     0.959433333333     0          
T        Si     0.581700000000     0.436733333333     0.959366666667     0          
T        Si     0.645100000000     0.478433333333     0.959533333333     0          
T        Si     0.682800000000     0.410133333333     0.959666666667     0          
T        Si     0.648800000000     0.531100000000     0.898000000000     0          
T        Si     0.620200000000     0.650866666667     0.897200000000     0          
T        Si     0.722300000000     0.384900000000     0.897300000000     0          
T        Si     0.539400000000     0.460566666667     0.897633333333     0          
T        Si     0.708900000000     0.570700000000     0.873300000000     0          
T        Si     0.691000000000     0.647966666667     0.873366666667     0          
T        Si     0.593500000000     0.578833333333     0.873633333333     0          
T        Si     0.530900000000     0.535933333333     0.873666666667     0          
O        O      0.409900000000     0.604100000000     0.953933333333     0          
O        O      0.347700000000     0.613266666667     0.948433333333     0          
O        O      0.386400000000     0.665766666667     0.935300000000     0          
O        O      0.388000000000     0.539866666667     0.947733333333     0          
O        O      0.448700000000     0.552500000000     0.935633333333     0          
O        O      0.325800000000     0.548966666667     0.954900000000     0          
O        O      0.348500000000     0.487366666667     0.935833333333     0          
O        O      0.287000000000     0.599933333333     0.935366666667     0          
O        O      0.389100000000     0.653933333333     0.867766666667     0          
O        O      0.441000000000     0.560200000000     0.867833333333     0          
O        O      0.347200000000     0.498033333333     0.867833333333     0          
O        O      0.295000000000     0.591666666667     0.867733333333     0          
O        O      0.323300000000     0.440033333333     0.894100000000     0          
O        O      0.385600000000     0.450133333333     0.894166666667     0          
O        O      0.342600000000     0.359333333333     0.893033333333     0          
O        O      0.401700000000     0.383566666667     0.892066666667     0          
O        O      0.239400000000     0.613533333333     0.892166666667     0          
O        O      0.289800000000     0.655033333333     0.893900000000     0          
O        O      0.454500000000     0.497966666667     0.893200000000     0          
O        O      0.498300000000     0.547533333333     0.893133333333     0          
O        O      0.287700000000     0.387233333333     0.873700000000     0          
O        O      0.443800000000     0.432200000000     0.875300000000     0          
T        Si     0.381000000000     0.631600000000     0.959433333333     0          
T        Si     0.418300000000     0.563266666667     0.959366666667     0          
T        Si     0.354900000000     0.521566666667     0.959533333333     0          
T        Si     0.317200000000     0.589866666667     0.959666666667     0          
T        Si     0.351200000000     0.468900000000     0.898000000000     0          
T        Si     0.379800000000     0.349133333333     0.897200000000     0          
T        Si     0.277700000000     0.615100000000     0.897300000000     0          
T        Si     0.460600000000     0.539433333333     0.897633333333     0          
T        Si     0.291100000000     0.429300000000     0.873300000000     0          
T        Si     0.309000000000     0.352033333333     0.873366666667     0          
T        Si     0.406500000000     0.421166666667     0.873633333333     0          
T        Si     0.469100000000     0.464066666667     0.873666666667     0          
O        O      0.090100000000     0.437433333333     0.712733333333     0          
O        O      0.152300000000     0.446600000000     0.718233333333     0          
O        O      0.113600000000     0.499100000000     0.731366666667     0          
O        O      0.112000000000     0.373200000000     0.718933333333     0          
O        O      0.051300000000     0.385833333333     0.731033333333     0          
O        O      0.174200000000     0.382300000000     0.711766666667     0          
O        O      0.151500000000     0.654033333333     0.730833333333     0          
O        O      0.213000000000     0.433266666667     0.731300000000     0          
O        O      0.110900000000     0.487266666667     0.798900000000     0          
O        O      0.059000000000     0.393533333333     0.798833333333     0          
O        O      0.152800000000     0.664700000000     0.798833333333     0          
O        O      0.205000000000     0.425000000000     0.798933333333     0          
O        O      0.176700000000     0.606700000000     0.772566666667     0          
O        O      0.114400000000     0.616800000000     0.772500000000     0          
O        O      0.157400000000     0.526000000000     0.773633333333     0          
O        O      0.098300000000     0.550233333333     0.774600000000     0          
O        O      0.260600000000     0.446866666667     0.774500000000     0          
O        O      0.210200000000     0.488366666667     0.772766666667     0          
O        O      0.045500000000     0.664633333333     0.773466666667     0          
O        O      0.001700000000     0.380866666667     0.773533333333     0          
O        O      0.212300000000     0.553900000000     0.792966666667     0          
O        O      0.056200000000     0.598866666667     0.791366666667     0          
T        Si     0.119000000000     0.464933333333     0.707233333333     0          
T        Si     0.081700000000     0.396600000000     0.707300000000     0          
T        Si     0.145100000000     0.354900000000     0.707133333333     0          
T        Si     0.182800000000     0.423200000000     0.707000000000     0          
T        Si     0.148800000000     0.635566666667     0.768666666667     0          
T        Si     0.120200000000     0.515800000000     0.769466666667     0          
T        Si     0.222300000000     0.448433333333     0.769366666667     0          
T        Si     0.039400000000     0.372766666667     0.769033333333     0          
T        Si     0.208900000000     0.595966666667     0.793366666667     0          
T        Si     0.191000000000     0.518700000000     0.793300000000     0          
T        Si     0.093500000000     0.587833333333     0.793033333333     0          
T        Si     0.030900000000     0.630733333333     0.793000000000     0          
O        O      0.909900000000     0.562566666667     0.712733333333     0          
O        O      0.847700000000     0.553400000000     0.718233333333     0          
O        O      0.886400000000     0.500900000000     0.731366666667     0          
O        O      0.888000000000     0.626800000000     0.718933333333     0          
O        O      0.948700000000     0.614166666667     0.731033333333     0          
O        O      0.825800000000     0.617700000000     0.711766666667     0          
O        O      0.848500000000     0.345966666667     0.730833333333     0          
O        O      0.787000000000     0.566733333333     0.731300000000     0          
O        O      0.889100000000     0.512733333333     0.798900000000     0          
O        O      0.941000000000     0.606466666667     0.798833333333     0          
O        O      0.847200000000     0.335300000000     0.798833333333     0          
O        O      0.795000000000     0.575000000000     0.798933333333     0          
O        O      0.823300000000     0.393300000000     0.772566666667     0          
O        O      0.885600000000     0.383200000000     0.772500000000     0          
O        O      0.842600000000     0.474000000000     0.773633333333     0          
O        O      0.901700000000     0.449766666667     0.774600000000     0          
O        O      0.739400000000     0.553133333333     0.774500000000     0          
O        O      0.789800000000     0.511633333333     0.772766666667     0          
O        O      0.954500000000     0.335366666667     0.773466666667     0          
O        O      0.998300000000     0.619133333333     0.773533333333     0          
O        O      0.787700000000     0.446100000000     0.792966666667     0          
O        O      0.943800000000     0.401133333333     0.791366666667     0          
T        Si     0.881000000000     0.535066666667     0.707233333333     0          
T        Si     0.918300000000     0.603400000000     0.707300000000     0          
T        Si     0.854900000000     0.645100000000     0.707133333333     0          
T        Si     0.817200000000     0.576800000000     0.707000000000     0          
T        Si     0.851200000000     0.364433333333     0.768666666667     0          
T        Si     0.879800000000     0.484200000000     0.769466666667     0          
T        Si     0.777700000000     0.551566666667     0.769366666667     0          
T        Si     0.960600000000     0.627233333333     0.769033333333     0          
T        Si     0.791100000000     0.404033333333     0.793366666667     0          
T        Si     0.809000000000     0.481300000000     0.793300000000     0          
T        Si     0.906500000000     0.412166666667     0.793033333333     0          
T        Si     0.969100000000     0.369266666667     0.793000000000     0          
O        O      0.409900000000     0.937433333333     0.046066666667     0          
O        O      0.379400000000     0.976533333333     0.000000000000     0          
O        O      0.347700000000     0.946600000000     0.051566666667     0          
O        O      0.386400000000     0.999100000000     0.064700000000     0          
O        O      0.426400000000     0.889333333333     0.000000000000     0          
O        O      0.388000000000     0.873200000000     0.052266666667     0          
O        O      0.448700000000     0.885833333333     0.064366666667     0          
O        O      0.357500000000     0.843200000000     0.000000000000     0          
O        O      0.325800000000     0.882300000000     0.045100000000     0          
O        O      0.348500000000     0.820700000000     0.064166666667     0          
O        O      0.308400000000     0.930933333333     0.000000000000     0          
O        O      0.287000000000     0.933266666667     0.064633333333     0          
O        O      0.397100000000     0.928533333333     0.166666666667     0          
O        O      0.340600000000     0.958633333333     0.166666666667     0          
O        O      0.389100000000     0.987266666667     0.132233333333     0          
O        O      0.395500000000     0.859866666667     0.166666666667     0          
O        O      0.441000000000     0.893533333333     0.132166666667     0          
O        O      0.339000000000     0.890000000000     0.166666666667     0          
O        O      0.347200000000     0.831366666667     0.132166666667     0          
O        O      0.295000000000     0.925000000000     0.132266666667     0          
O        O      0.323300000000     0.773366666667     0.105900000000     0          
O        O      0.385600000000     0.783466666667     0.105833333333     0          
O        O      0.342600000000     0.692666666667     0.106966666667     0          
O        O      0.401700000000     0.716900000000     0.107933333333     0          
O        O      0.239400000000     0.946866666667     0.107833333333     0          
O        O      0.289800000000     0.988366666667     0.106100000000     0          
O        O      0.454500000000     0.831300000000     0.106800000000     0          
O        O      0.498300000000     0.880866666667     0.106866666667     0          
O        O      0.293400000000     0.776000000000     0.166666666667     0          
O        O      0.287700000000     0.720566666667     0.126300000000     0          
O        O      0.315400000000     0.673833333333     0.166666666667     0          
O        O      0.395200000000     0.752500000000     0.166666666667     0          
O        O      0.443800000000     0.765533333333     0.124700000000     0          
O        O      0.476600000000     0.806733333333     0.166666666667     0          
T        Si     0.381000000000     0.964933333333     0.040566666667     0          
T        Si     0.418300000000     0.896600000000     0.040633333333     0          
T        Si     0.354900000000     0.854900000000     0.040466666667     0          
T        Si     0.317200000000     0.923200000000     0.040333333333     0          
T        Si     0.378700000000     0.965633333333     0.166666666667     0          
T        Si     0.418700000000     0.893633333333     0.166666666667     0          
T        Si     0.357400000000     0.852900000000     0.166666666667     0          
T        Si     0.317400000000     0.924900000000     0.166666666667     0          
T        Si     0.351200000000     0.802233333333     0.102000000000     0          
T        Si     0.379800000000     0.682466666667     0.102800000000     0          
T        Si     0.277700000000     0.948433333333     0.102700000000     0          
T        Si     0.460600000000     0.872766666667     0.102366666667     0          
T        Si     0.291100000000     0.762633333333     0.126700000000     0          
T        Si     0.309000000000     0.685366666667     0.126633333333     0          
T        Si     0.406500000000     0.754500000000     0.126366666667     0          
T        Si     0.469100000000     0.797400000000     0.126333333333     0          
O        O      0.590100000000     0.729233333333     0.046066666667     0          
O        O      0.620600000000     0.690133333333     0.000000000000     0          
O        O      0.652300000000     0.720066666667     0.051566666667     0          
O        O      0.613600000000     0.667566666667     0.064700000000     0          
O        O      0.573600000000     0.777333333333     0.000000000000     0          
O        O      0.612000000000     0.793466666667     0.052266666667     0          
O        O      0.551300000000     0.780833333333     0.064366666667     0          
O        O      0.642500000000     0.823466666667     0.000000000000     0          
O        O      0.674200000000     0.784366666667     0.045100000000     0          
O        O      0.651500000000     0.845966666667     0.064166666667     0          
O        O      0.691600000000     0.735733333333     0.000000000000     0          
O        O      0.713000000000     0.733400000000     0.064633333333     0          
O        O      0.602900000000     0.738133333333     0.166666666667     0          
O        O      0.659400000000     0.708033333333     0.166666666667     0          
O        O      0.610900000000     0.679400000000     0.132233333333     0          
O        O      0.604500000000     0.806800000000     0.166666666667     0          
O        O      0.559000000000     0.773133333333     0.132166666667     0          
O        O      0.661000000000     0.776666666667     0.166666666667     0          
O        O      0.652800000000     0.835300000000     0.132166666667     0          
O        O      0.705000000000     0.741666666667     0.132266666667     0          
O        O      0.676700000000     0.893300000000     0.105900000000     0          
O        O      0.614400000000     0.883200000000     0.105833333333     0          
O        O      0.657400000000     0.974000000000     0.106966666667     0          
O        O      0.598300000000     0.949766666667     0.107933333333     0          
O        O      0.760600000000     0.719800000000     0.107833333333     0          
O        O      0.710200000000     0.678300000000     0.106100000000     0          
O        O      0.545500000000     0.835366666667     0.106800000000     0          
O        O      0.501700000000     0.785800000000     0.106866666667     0          
O        O      0.706600000000     0.890666666667     0.166666666667     0          
O        O      0.712300000000     0.946100000000     0.126300000000     0          
O        O      0.684600000000     0.992833333333     0.166666666667     0          
O        O      0.604800000000     0.914166666667     0.166666666667     0          
O        O      0.556200000000     0.901133333333     0.124700000000     0          
O        O      0.523400000000     0.859933333333     0.166666666667     0          
T        Si     0.619000000000     0.701733333333     0.040566666667     0          
T        Si     0.581700000000     0.770066666667     0.040633333333     0          
T        Si     0.645100000000     0.811766666667     0.040466666667     0          
T        Si     0.682800000000     0.743466666667     0.040333333333     0          
T        Si     0.621300000000     0.701033333333     0.166666666667     0          
T        Si     0.581300000000     0.773033333333     0.166666666667     0          
T        Si     0.642600000000     0.813766666667     0.166666666667     0          
T        Si     0.682600000000     0.741766666667     0.166666666667     0          
T        Si     0.648800000000     0.864433333333     0.102000000000     0          
T        Si     0.620200000000     0.984200000000     0.102800000000     0          
T        Si     0.722300000000     0.718233333333     0.102700000000     0          
T        Si     0.539400000000     0.793900000000     0.102366666667     0          
T        Si     0.708900000000     0.904033333333     0.126700000000     0          
T        Si     0.691000000000     0.981300000000     0.126633333333     0          
T        Si     0.593500000000     0.912166666667     0.126366666667     0          
T        Si     0.530900000000     0.869266666667     0.126333333333     0          
O        O      0.909900000000     0.895900000000     0.287266666667     0          
O        O      0.879400000000     0.856800000000     0.000000000000     0          
O        O      0.847700000000     0.886733333333     0.281766666667     0          
O        O      0.886400000000     0.834233333333     0.268633333333     0          
O        O      0.926400000000     0.944000000000     0.000000000000     0          
O        O      0.888000000000     0.960133333333     0.281066666667     0          
O        O      0.948700000000     0.947500000000     0.268966666667     0          
O        O      0.857500000000     0.990133333333     0.000000000000     0          
O        O      0.825800000000     0.951033333333     0.288233333333     0          
O        O      0.848500000000     0.679300000000     0.269166666667     0          
O        O      0.808400000000     0.902400000000     0.000000000000     0          
O        O      0.787000000000     0.900066666667     0.268700000000     0          
O        O      0.897100000000     0.904800000000     0.166666666667     0          
O        O      0.840600000000     0.874700000000     0.166666666667     0          
O        O      0.889100000000     0.846066666667     0.201100000000     0          
O        O      0.895500000000     0.973466666667     0.166666666667     0          
O        O      0.941000000000     0.939800000000     0.201166666667     0          
O        O      0.839000000000     0.943333333333     0.166666666667     0          
O        O      0.847200000000     0.668633333333     0.201166666667     0          
O        O      0.795000000000     0.908333333333     0.201066666667     0          
O        O      0.823300000000     0.726633333333     0.227433333333     0          
O        O      0.885600000000     0.716533333333     0.227500000000     0          
O        O      0.842600000000     0.807333333333     0.226366666667     0          
O        O      0.901700000000     0.783100000000     0.225400000000     0          
O        O      0.739400000000     0.886466666667     0.225500000000     0          
O        O      0.789800000000     0.844966666667     0.227233333333     0          
O        O      0.954500000000     0.668700000000     0.226533333333     0          
O        O      0.998300000000     0.952466666667     0.226466666667     0          
O        O      0.793400000000     0.724000000000     0.166666666667     0          
O        O      0.787700000000     0.779433333333     0.207033333333     0          
O        O      0.815400000000     0.826166666667     0.166666666667     0          
O        O      0.895200000000     0.747500000000     0.166666666667     0          
O        O      0.943800000000     0.734466666667     0.208633333333     0          
O        O      0.976600000000     0.693266666667     0.166666666667     0          
T        Si     0.881000000000     0.868400000000     0.292766666667     0          
T        Si     0.918300000000     0.936733333333     0.292700000000     0          
T        Si     0.854900000000     0.978433333333     0.292866666667     0          
T        Si     0.817200000000     0.910133333333     0.293000000000     0          
T        Si     0.878700000000     0.867700000000     0.166666666667     0          
T        Si     0.918700000000     0.939700000000     0.166666666667     0          
T        Si     0.857400000000     0.980433333333     0.166666666667     0          
T        Si     0.817400000000     0.908433333333     0.166666666667     0          
T        Si     0.851200000000     0.697766666667     0.231333333333     0          
T        Si     0.879800000000     0.817533333333     0.230533333333     0          
T        Si     0.777700000000     0.884900000000     0.230633333333     0          
T        Si     0.960600000000     0.960566666667     0.230966666667     0          
T        Si     0.791100000000     0.737366666667     0.206633333333     0          
T        Si     0.809000000000     0.814633333333     0.206700000000     0          
T        Si     0.906500000000     0.745500000000     0.206966666667     0          
T        Si     0.969100000000     0.702600000000     0.207000000000     0          
O        O      0.090100000000     0.770766666667     0.287266666667     0          
O        O      0.120600000000     0.809866666667     0.000000000000     0          
O        O      0.152300000000     0.779933333333     0.281766666667     0          
O        O      0.113600000000     0.832433333333     0.268633333333     0          
O        O      0.073600000000     0.722666666667     0.000000000000     0          
O        O      0.112000000000     0.706533333333     0.281066666667     0          
O        O      0.051300000000     0.719166666667     0.268966666667     0          
O        O      0.142500000000     0.676533333333     0.000000000000     0          
O        O      0.174200000000     0.715633333333     0.288233333333     0          
O        O      0.151500000000     0.987366666667     0.269166666667     0          
O        O      0.191600000000     0.764266666667     0.000000000000     0          
O        O      0.213000000000     0.766600000000     0.268700000000     0          
O        O      0.102900000000     0.761866666667     0.166666666667     0          
O        O      0.159400000000     0.791966666667     0.166666666667     0          
O        O      0.110900000000     0.820600000000     0.201100000000     0          
O        O      0.104500000000     0.693200000000     0.166666666667     0          
O        O      0.059000000000     0.726866666667     0.201166666667     0          
O        O      0.161000000000     0.723333333333     0.166666666667     0          
O        O      0.152800000000     0.998033333333     0.201166666667     0          
O        O      0.205000000000     0.758333333333     0.201066666667     0          
O        O      0.176700000000     0.940033333333     0.227433333333     0          
O        O      0.114400000000     0.950133333333     0.227500000000     0          
O        O      0.157400000000     0.859333333333     0.226366666667     0          
O        O      0.098300000000     0.883566666667     0.225400000000     0          
O        O      0.260600000000     0.780200000000     0.225500000000     0          
O        O      0.210200000000     0.821700000000     0.227233333333     0          
O        O      0.045500000000     0.997966666667     0.226533333333     0          
O        O      0.001700000000     0.714200000000     0.226466666667     0          
O        O      0.206600000000     0.942666666667     0.166666666667     0          
O        O      0.212300000000     0.887233333333     0.207033333333     0          
O        O      0.184600000000     0.840500000000     0.166666666667     0          
O        O      0.104800000000     0.919166666667     0.166666666667     0          
O        O      0.056200000000     0.932200000000     0.208633333333     0          
O        O      0.023400000000     0.973400000000     0.166666666667     0          
T        Si     0.119000000000     0.798266666667     0.292766666667     0          
T        Si     0.081700000000     0.729933333333     0.292700000000     0          
T        Si     0.145100000000     0.688233333333     0.292866666667     0          
T        Si     0.182800000000     0.756533333333     0.293000000000     0          
T        Si     0.121300000000     0.798966666667     0.166666666667     0          
T        Si     0.081300000000     0.726966666667     0.166666666667     0          
T        Si     0.142600000000     0.686233333333     0.166666666667     0          
T        Si     0.182600000000     0.758233333333     0.166666666667     0          
T        Si     0.148800000000     0.968900000000     0.231333333333     0          
T        Si     0.120200000000     0.849133333333     0.230533333333     0          
T        Si     0.222300000000     0.781766666667     0.230633333333     0          
T        Si     0.039400000000     0.706100000000     0.230966666667     0          
T        Si     0.208900000000     0.929300000000     0.206633333333     0          
T        Si     0.191000000000     0.852033333333     0.206700000000     0          
T        Si     0.093500000000     0.921166666667     0.206966666667     0          
T        Si     0.030900000000     0.964066666667     0.207000000000     0          
O        O      0.590100000000     0.729233333333     0.287266666667     0          
O        O      0.652300000000     0.720066666667     0.281766666667     0          
O        O      0.613600000000     0.667566666667     0.268633333333     0          
O        O      0.612000000000     0.793466666667     0.281066666667     0          
O        O      0.551300000000     0.780833333333     0.268966666667     0          
O        O      0.674200000000     0.784366666667     0.288233333333     0          
O        O      0.651500000000     0.845966666667     0.269166666667     0          
O        O      0.713000000000     0.733400000000     0.268700000000     0          
O        O      0.610900000000     0.679400000000     0.201100000000     0          
O        O      0.559000000000     0.773133333333     0.201166666667     0          
O        O      0.652800000000     0.835300000000     0.201166666667     0          
O        O      0.705000000000     0.741666666667     0.201066666667     0          
O        O      0.676700000000     0.893300000000     0.227433333333     0          
O        O      0.614400000000     0.883200000000     0.227500000000     0          
O        O      0.657400000000     0.974000000000     0.226366666667     0          
O        O      0.598300000000     0.949766666667     0.225400000000     0          
O        O      0.760600000000     0.719800000000     0.225500000000     0          
O        O      0.710200000000     0.678300000000     0.227233333333     0          
O        O      0.545500000000     0.835366666667     0.226533333333     0          
O        O      0.501700000000     0.785800000000     0.226466666667     0          
O        O      0.712300000000     0.946100000000     0.207033333333     0          
O        O      0.556200000000     0.901133333333     0.208633333333     0          
T        Si     0.619000000000     0.701733333333     0.292766666667     0          
T        Si     0.581700000000     0.770066666667     0.292700000000     0          
T        Si     0.645100000000     0.811766666667     0.292866666667     0          
T        Si     0.682800000000     0.743466666667     0.293000000000     0          
T        Si     0.648800000000     0.864433333333     0.231333333333     0          
T        Si     0.620200000000     0.984200000000     0.230533333333     0          
T        Si     0.722300000000     0.718233333333     0.230633333333     0          
T        Si     0.539400000000     0.793900000000     0.230966666667     0          
T        Si     0.708900000000     0.904033333333     0.206633333333     0          
T        Si     0.691000000000     0.981300000000     0.206700000000     0          
T        Si     0.593500000000     0.912166666667     0.206966666667     0          
T        Si     0.530900000000     0.869266666667     0.207000000000     0          
O        O      0.409900000000     0.937433333333     0.287266666667     0          
O        O      0.347700000000     0.946600000000     0.281766666667     0          
O        O      0.386400000000     0.999100000000     0.268633333333     0          
O        O      0.388000000000     0.873200000000     0.281066666667     0          
O        O      0.448700000000     0.885833333333     0.268966666667     0          
O        O      0.325800000000     0.882300000000     0.288233333333     0          
O        O      0.348500000000     0.820700000000     0.269166666667     0          
O        O      0.287000000000     0.933266666667     0.268700000000     0          
O        O      0.389100000000     0.987266666667     0.201100000000     0          
O        O      0.441000000000     0.893533333333     0.201166666667     0          
O        O      0.347200000000     0.831366666667     0.201166666667     0          
O        O      0.295000000000     0.925000000000     0.201066666667     0          
O        O      0.323300000000     0.773366666667     0.227433333333     0          
O        O      0.385600000000     0.783466666667     0.227500000000     0          
O        O      0.342600000000     0.692666666667     0.226366666667     0          
O        O      0.401700000000     0.716900000000     0.225400000000     0          
O        O      0.239400000000     0.946866666667     0.225500000000     0          
O        O      0.289800000000     0.988366666667     0.227233333333     0          
O        O      0.454500000000     0.831300000000     0.226533333333     0          
O        O      0.498300000000     0.880866666667     0.226466666667     0          
O        O      0.287700000000     0.720566666667     0.207033333333     0          
O        O      0.443800000000     0.765533333333     0.208633333333     0          
T        Si     0.381000000000     0.964933333333     0.292766666667     0          
T        Si     0.418300000000     0.896600000000     0.292700000000     0          
T        Si     0.354900000000     0.854900000000     0.292866666667     0          
T        Si     0.317200000000     0.923200000000     0.293000000000     0          
T        Si     0.351200000000     0.802233333333     0.231333333333     0          
T        Si     0.379800000000     0.682466666667     0.230533333333     0          
T        Si     0.277700000000     0.948433333333     0.230633333333     0          
T        Si     0.460600000000     0.872766666667     0.230966666667     0          
T        Si     0.291100000000     0.762633333333     0.206633333333     0          
T        Si     0.309000000000     0.685366666667     0.206700000000     0          
T        Si     0.406500000000     0.754500000000     0.206966666667     0          
T        Si     0.469100000000     0.797400000000     0.207000000000     0          
O        O      0.090100000000     0.770766666667     0.046066666667     0          
O        O      0.152300000000     0.779933333333     0.051566666667     0          
O        O      0.113600000000     0.832433333333     0.064700000000     0          
O        O      0.112000000000     0.706533333333     0.052266666667     0          
O        O      0.051300000000     0.719166666667     0.064366666667     0          
O        O      0.174200000000     0.715633333333     0.045100000000     0          
O        O      0.151500000000     0.987366666667     0.064166666667     0          
O        O      0.213000000000     0.766600000000     0.064633333333     0          
O        O      0.110900000000     0.820600000000     0.132233333333     0          
O        O      0.059000000000     0.726866666667     0.132166666667     0          
O        O      0.152800000000     0.998033333333     0.132166666667     0          
O        O      0.205000000000     0.758333333333     0.132266666667     0          
O        O      0.176700000000     0.940033333333     0.105900000000     0          
O        O      0.114400000000     0.950133333333     0.105833333333     0          
O        O      0.157400000000     0.859333333333     0.106966666667     0          
O        O      0.098300000000     0.883566666667     0.107933333333     0          
O        O      0.260600000000     0.780200000000     0.107833333333     0          
O        O      0.210200000000     0.821700000000     0.106100000000     0          
O        O      0.045500000000     0.997966666667     0.106800000000     0          
O        O      0.001700000000     0.714200000000     0.106866666667     0          
O        O      0.212300000000     0.887233333333     0.126300000000     0          
O        O      0.056200000000     0.932200000000     0.124700000000     0          
T        Si     0.119000000000     0.798266666667     0.040566666667     0          
T        Si     0.081700000000     0.729933333333     0.040633333333     0          
T        Si     0.145100000000     0.688233333333     0.040466666667     0          
T        Si     0.182800000000     0.756533333333     0.040333333333     0          
T        Si     0.148800000000     0.968900000000     0.102000000000     0          
T        Si     0.120200000000     0.849133333333     0.102800000000     0          
T        Si     0.222300000000     0.781766666667     0.102700000000     0          
T        Si     0.039400000000     0.706100000000     0.102366666667     0          
T        Si     0.208900000000     0.929300000000     0.126700000000     0          
T        Si     0.191000000000     0.852033333333     0.126633333333     0          
T        Si     0.093500000000     0.921166666667     0.126366666667     0          
T        Si     0.030900000000     0.964066666667     0.126333333333     0          
O        O      0.909900000000     0.895900000000     0.046066666667     0          
O        O      0.847700000000     0.886733333333     0.051566666667     0          
O        O      0.886400000000     0.834233333333     0.064700000000     0          
O        O      0.888000000000     0.960133333333     0.052266666667     0          
O        O      0.948700000000     0.947500000000     0.064366666667     0          
O        O      0.825800000000     0.951033333333     0.045100000000     0          
O        O      0.848500000000     0.679300000000     0.064166666667     0          
O        O      0.787000000000     0.900066666667     0.064633333333     0          
O        O      0.889100000000     0.846066666667     0.132233333333     0          
O        O      0.941000000000     0.939800000000     0.132166666667     0          
O        O      0.847200000000     0.668633333333     0.132166666667     0          
O        O      0.795000000000     0.908333333333     0.132266666667     0          
O        O      0.823300000000     0.726633333333     0.105900000000     0          
O        O      0.885600000000     0.716533333333     0.105833333333     0          
O        O      0.842600000000     0.807333333333     0.106966666667     0          
O        O      0.901700000000     0.783100000000     0.107933333333     0          
O        O      0.739400000000     0.886466666667     0.107833333333     0          
O        O      0.789800000000     0.844966666667     0.106100000000     0          
O        O      0.954500000000     0.668700000000     0.106800000000     0          
O        O      0.998300000000     0.952466666667     0.106866666667     0          
O        O      0.787700000000     0.779433333333     0.126300000000     0          
O        O      0.943800000000     0.734466666667     0.124700000000     0          
T        Si     0.881000000000     0.868400000000     0.040566666667     0          
T        Si     0.918300000000     0.936733333333     0.040633333333     0          
T        Si     0.854900000000     0.978433333333     0.040466666667     0          
T        Si     0.817200000000     0.910133333333     0.040333333333     0          
T        Si     0.851200000000     0.697766666667     0.102000000000     0          
T        Si     0.879800000000     0.817533333333     0.102800000000     0          
T        Si     0.777700000000     0.884900000000     0.102700000000     0          
T        Si     0.960600000000     0.960566666667     0.102366666667     0          
T        Si     0.791100000000     0.737366666667     0.126700000000     0          
T        Si     0.809000000000     0.814633333333     0.126633333333     0          
T        Si     0.906500000000     0.745500000000     0.126366666667     0          
T        Si     0.969100000000     0.702600000000     0.126333333333     0          
O        O      0.409900000000     0.937433333333     0.379400000000     0          
O        O      0.379400000000     0.976533333333     0.333333333333     0          
O        O      0.347700000000     0.946600000000     0.384900000000     0          
O        O      0.386400000000     0.999100000000     0.398033333333     0          
O        O      0.426400000000     0.889333333333     0.333333333333     0          
O        O      0.388000000000     0.873200000000     0.385600000000     0          
O        O      0.448700000000     0.885833333333     0.397700000000     0          
O        O      0.357500000000     0.843200000000     0.333333333333     0          
O        O      0.325800000000     0.882300000000     0.378433333333     0          
O        O      0.348500000000     0.820700000000     0.397500000000     0          
O        O      0.308400000000     0.930933333333     0.333333333333     0          
O        O      0.287000000000     0.933266666667     0.397966666667     0          
O        O      0.397100000000     0.928533333333     0.500000000000     0          
O        O      0.340600000000     0.958633333333     0.500000000000     0          
O        O      0.389100000000     0.987266666667     0.465566666667     0          
O        O      0.395500000000     0.859866666667     0.500000000000     0          
O        O      0.441000000000     0.893533333333     0.465500000000     0          
O        O      0.339000000000     0.890000000000     0.500000000000     0          
O        O      0.347200000000     0.831366666667     0.465500000000     0          
O        O      0.295000000000     0.925000000000     0.465600000000     0          
O        O      0.323300000000     0.773366666667     0.439233333333     0          
O        O      0.385600000000     0.783466666667     0.439166666667     0          
O        O      0.342600000000     0.692666666667     0.440300000000     0          
O        O      0.401700000000     0.716900000000     0.441266666667     0          
O        O      0.239400000000     0.946866666667     0.441166666667     0          
O        O      0.289800000000     0.988366666667     0.439433333333     0          
O        O      0.454500000000     0.831300000000     0.440133333333     0          
O        O      0.498300000000     0.880866666667     0.440200000000     0          
O        O      0.293400000000     0.776000000000     0.500000000000     0          
O        O      0.287700000000     0.720566666667     0.459633333333     0          
O        O      0.315400000000     0.673833333333     0.500000000000     0          
O        O      0.395200000000     0.752500000000     0.500000000000     0          
O        O      0.443800000000     0.765533333333     0.458033333333     0          
O        O      0.476600000000     0.806733333333     0.500000000000     0          
T        Si     0.381000000000     0.964933333333     0.373900000000     0          
T        Si     0.418300000000     0.896600000000     0.373966666667     0          
T        Si     0.354900000000     0.854900000000     0.373800000000     0          
T        Si     0.317200000000     0.923200000000     0.373666666667     0          
T        Si     0.378700000000     0.965633333333     0.500000000000     0          
T        Si     0.418700000000     0.893633333333     0.500000000000     0          
T        Si     0.357400000000     0.852900000000     0.500000000000     0          
T        Si     0.317400000000     0.924900000000     0.500000000000     0          
T        Si     0.351200000000     0.802233333333     0.435333333333     0          
T        Si     0.379800000000     0.682466666667     0.436133333333     0          
T        Si     0.277700000000     0.948433333333     0.436033333333     0          
T        Si     0.460600000000     0.872766666667     0.435700000000     0          
T        Si     0.291100000000     0.762633333333     0.460033333333     0          
T        Si     0.309000000000     0.685366666667     0.459966666667     0          
T        Si     0.406500000000     0.754500000000     0.459700000000     0          
T        Si     0.469100000000     0.797400000000     0.459666666667     0          
O        O      0.590100000000     0.729233333333     0.379400000000     0          
O        O      0.620600000000     0.690133333333     0.333333333333     0          
O        O      0.652300000000     0.720066666667     0.384900000000     0          
O        O      0.613600000000     0.667566666667     0.398033333333     0          
O        O      0.573600000000     0.777333333333     0.333333333333     0          
O        O      0.612000000000     0.793466666667     0.385600000000     0          
O        O      0.551300000000     0.780833333333     0.397700000000     0          
O        O      0.642500000000     0.823466666667     0.333333333333     0          
O        O      0.674200000000     0.784366666667     0.378433333333     0          
O        O      0.651500000000     0.845966666667     0.397500000000     0          
O        O      0.691600000000     0.735733333333     0.333333333333     0          
O        O      0.713000000000     0.733400000000     0.397966666667     0          
O        O      0.602900000000     0.738133333333     0.500000000000     0          
O        O      0.659400000000     0.708033333333     0.500000000000     0          
O        O      0.610900000000     0.679400000000     0.465566666667     0          
O        O      0.604500000000     0.806800000000     0.500000000000     0          
O        O      0.559000000000     0.773133333333     0.465500000000     0          
O        O      0.661000000000     0.776666666667     0.500000000000     0          
O        O      0.652800000000     0.835300000000     0.465500000000     0          
O        O      0.705000000000     0.741666666667     0.465600000000     0          
O        O      0.676700000000     0.893300000000     0.439233333333     0          
O        O      0.614400000000     0.883200000000     0.439166666667     0          
O        O      0.657400000000     0.974000000000     0.440300000000     0          
O        O      0.598300000000     0.949766666667     0.441266666667     0          
O        O      0.760600000000     0.719800000000     0.441166666667     0          
O        O      0.710200000000     0.678300000000     0.439433333333     0          
O        O      0.545500000000     0.835366666667     0.440133333333     0          
O        O      0.501700000000     0.785800000000     0.440200000000     0          
O        O      0.706600000000     0.890666666667     0.500000000000     0          
O        O      0.712300000000     0.946100000000     0.459633333333     0          
O        O      0.684600000000     0.992833333333     0.500000000000     0          
O        O      0.604800000000     0.914166666667     0.500000000000     0          
O        O      0.556200000000     0.901133333333     0.458033333333     0          
O        O      0.523400000000     0.859933333333     0.500000000000     0          
T        Si     0.619000000000     0.701733333333     0.373900000000     0          
T        Si     0.581700000000     0.770066666667     0.373966666667     0          
T        Si     0.645100000000     0.811766666667     0.373800000000     0          
T        Si     0.682800000000     0.743466666667     0.373666666667     0          
T        Si     0.621300000000     0.701033333333     0.500000000000     0          
T        Si     0.581300000000     0.773033333333     0.500000000000     0          
T        Si     0.642600000000     0.813766666667     0.500000000000     0          
T        Si     0.682600000000     0.741766666667     0.500000000000     0          
T        Si     0.648800000000     0.864433333333     0.435333333333     0          
T        Si     0.620200000000     0.984200000000     0.436133333333     0          
T        Si     0.722300000000     0.718233333333     0.436033333333     0          
T        Si     0.539400000000     0.793900000000     0.435700000000     0          
T        Si     0.708900000000     0.904033333333     0.460033333333     0          
T        Si     0.691000000000     0.981300000000     0.459966666667     0          
T        Si     0.593500000000     0.912166666667     0.459700000000     0          
T        Si     0.530900000000     0.869266666667     0.459666666667     0          
O        O      0.909900000000     0.895900000000     0.620600000000     0          
O        O      0.879400000000     0.856800000000     0.333333333333     0          
O        O      0.847700000000     0.886733333333     0.615100000000     0          
O        O      0.886400000000     0.834233333333     0.601966666667     0          
O        O      0.926400000000     0.944000000000     0.333333333333     0          
O        O      0.888000000000     0.960133333333     0.614400000000     0          
O        O      0.948700000000     0.947500000000     0.602300000000     0          
O        O      0.857500000000     0.990133333333     0.333333333333     0          
O        O      0.825800000000     0.951033333333     0.621566666667     0          
O        O      0.848500000000     0.679300000000     0.602500000000     0          
O        O      0.808400000000     0.902400000000     0.333333333333     0          
O        O      0.787000000000     0.900066666667     0.602033333333     0          
O        O      0.897100000000     0.904800000000     0.500000000000     0          
O        O      0.840600000000     0.874700000000     0.500000000000     0          
O        O      0.889100000000     0.846066666667     0.534433333333     0          
O        O      0.895500000000     0.973466666667     0.500000000000     0          
O        O      0.941000000000     0.939800000000     0.534500000000     0          
O        O      0.839000000000     0.943333333333     0.500000000000     0          
O        O      0.847200000000     0.668633333333     0.534500000000     0          
O        O      0.795000000000     0.908333333333     0.534400000000     0          
O        O      0.823300000000     0.726633333333     0.560766666667     0          
O        O      0.885600000000     0.716533333333     0.560833333333     0          
O        O      0.842600000000     0.807333333333     0.559700000000     0          
O        O      0.901700000000     0.783100000000     0.558733333333     0          
O        O      0.739400000000     0.886466666667     0.558833333333     0          
O        O      0.789800000000     0.844966666667     0.560566666667     0          
O        O      0.954500000000     0.668700000000     0.559866666667     0          
O        O      0.998300000000     0.952466666667     0.559800000000     0          
O        O      0.793400000000     0.724000000000     0.500000000000     0          
O        O      0.787700000000     0.779433333333     0.540366666667     0          
O        O      0.815400000000     0.826166666667     0.500000000000     0          
O        O      0.895200000000     0.747500000000     0.500000000000     0          
O        O      0.943800000000     0.734466666667     0.541966666667     0          
O        O      0.976600000000     0.693266666667     0.500000000000     0          
T        Si     0.881000000000     0.868400000000     0.626100000000     0          
T        Si     0.918300000000     0.936733333333     0.626033333333     0          
T        Si     0.854900000000     0.978433333333     0.626200000000     0          
T        Si     0.817200000000     0.910133333333     0.626333333333     0          
T        Si     0.878700000000     0.867700000000     0.500000000000     0          
T        Si     0.918700000000     0.939700000000     0.500000000000     0          
T        Si     0.857400000000     0.980433333333     0.500000000000     0          
T        Si     0.817400000000     0.908433333333     0.500000000000     0          
T        Si     0.851200000000     0.697766666667     0.564666666667     0          
T        Si     0.879800000000     0.817533333333     0.563866666667     0          
T        Si     0.777700000000     0.884900000000     0.563966666667     0          
T        Si     0.960600000000     0.960566666667     0.564300000000     0          
T        Si     0.791100000000     0.737366666667     0.539966666667     0          
T        Si     0.809000000000     0.814633333333     0.540033333333     0          
T        Si     0.906500000000     0.745500000000     0.540300000000     0          
T        Si     0.969100000000     0.702600000000     0.540333333333     0          
O        O      0.090100000000     0.770766666667     0.620600000000     0          
O        O      0.120600000000     0.809866666667     0.333333333333     0          
O        O      0.152300000000     0.779933333333     0.615100000000     0          
O        O      0.113600000000     0.832433333333     0.601966666667     0          
O        O      0.073600000000     0.722666666667     0.333333333333     0          
O        O      0.112000000000     0.706533333333     0.614400000000     0          
O        O      0.051300000000     0.719166666667     0.602300000000     0          
O        O      0.142500000000     0.676533333333     0.333333333333     0          
O        O      0.174200000000     0.715633333333     0.621566666667     0          
O        O      0.151500000000     0.987366666667     0.602500000000     0          
O        O      0.191600000000     0.764266666667     0.333333333333     0          
O        O      0.213000000000     0.766600000000     0.602033333333     0          
O        O      0.102900000000     0.761866666667     0.500000000000     0          
O        O      0.159400000000     0.791966666667     0.500000000000     0          
O        O      0.110900000000     0.820600000000     0.534433333333     0          
O        O      0.104500000000     0.693200000000     0.500000000000     0          
O        O      0.059000000000     0.726866666667     0.534500000000     0          
O        O      0.161000000000     0.723333333333     0.500000000000     0          
O        O      0.152800000000     0.998033333333     0.534500000000     0          
O        O      0.205000000000     0.758333333333     0.534400000000     0          
O        O      0.176700000000     0.940033333333     0.560766666667     0          
O        O      0.114400000000     0.950133333333     0.560833333333     0          
O        O      0.157400000000     0.859333333333     0.559700000000     0          
O        O      0.098300000000     0.883566666667     0.558733333333     0          
O        O      0.260600000000     0.780200000000     0.558833333333     0          
O        O      0.210200000000     0.821700000000     0.560566666667     0          
O        O      0.045500000000     0.997966666667     0.559866666667     0          
O        O      0.001700000000     0.714200000000     0.559800000000     0          
O        O      0.206600000000     0.942666666667     0.500000000000     0          
O        O      0.212300000000     0.887233333333     0.540366666667     0          
O        O      0.184600000000     0.840500000000     0.500000000000     0          
O        O      0.104800000000     0.919166666667     0.500000000000     0          
O        O      0.056200000000     0.932200000000     0.541966666667     0          
O        O      0.023400000000     0.973400000000     0.500000000000     0          
T        Si     0.119000000000     0.798266666667     0.626100000000     0          
T        Si     0.081700000000     0.729933333333     0.626033333333     0          
T        Si     0.145100000000     0.688233333333     0.626200000000     0          
T        Si     0.182800000000     0.756533333333     0.626333333333     0          
T        Si     0.121300000000     0.798966666667     0.500000000000     0          
T        Si     0.081300000000     0.726966666667     0.500000000000     0          
T        Si     0.142600000000     0.686233333333     0.500000000000     0          
T        Si     0.182600000000     0.758233333333     0.500000000000     0          
T        Si     0.148800000000     0.968900000000     0.564666666667     0          
T        Si     0.120200000000     0.849133333333     0.563866666667     0          
T        Si     0.222300000000     0.781766666667     0.563966666667     0          
T        Si     0.039400000000     0.706100000000     0.564300000000     0          
T        Si     0.208900000000     0.929300000000     0.539966666667     0          
T        Si     0.191000000000     0.852033333333     0.540033333333     0          
T        Si     0.093500000000     0.921166666667     0.540300000000     0          
T        Si     0.030900000000     0.964066666667     0.540333333333     0          
O        O      0.590100000000     0.729233333333     0.620600000000     0          
O        O      0.652300000000     0.720066666667     0.615100000000     0          
O        O      0.613600000000     0.667566666667     0.601966666667     0          
O        O      0.612000000000     0.793466666667     0.614400000000     0          
O        O      0.551300000000     0.780833333333     0.602300000000     0          
O        O      0.674200000000     0.784366666667     0.621566666667     0          
O        O      0.651500000000     0.845966666667     0.602500000000     0          
O        O      0.713000000000     0.733400000000     0.602033333333     0          
O        O      0.610900000000     0.679400000000     0.534433333333     0          
O        O      0.559000000000     0.773133333333     0.534500000000     0          
O        O      0.652800000000     0.835300000000     0.534500000000     0          
O        O      0.705000000000     0.741666666667     0.534400000000     0          
O        O      0.676700000000     0.893300000000     0.560766666667     0          
O        O      0.614400000000     0.883200000000     0.560833333333     0          
O        O      0.657400000000     0.974000000000     0.559700000000     0          
O        O      0.598300000000     0.949766666667     0.558733333333     0          
O        O      0.760600000000     0.719800000000     0.558833333333     0          
O        O      0.710200000000     0.678300000000     0.560566666667     0          
O        O      0.545500000000     0.835366666667     0.559866666667     0          
O        O      0.501700000000     0.785800000000     0.559800000000     0          
O        O      0.712300000000     0.946100000000     0.540366666667     0          
O        O      0.556200000000     0.901133333333     0.541966666667     0          
T        Si     0.619000000000     0.701733333333     0.626100000000     0          
T        Si     0.581700000000     0.770066666667     0.626033333333     0          
T        Si     0.645100000000     0.811766666667     0.626200000000     0          
T        Si     0.682800000000     0.743466666667     0.626333333333     0          
T        Si     0.648800000000     0.864433333333     0.564666666667     0          
T        Si     0.620200000000     0.984200000000     0.563866666667     0          
T        Si     0.722300000000     0.718233333333     0.563966666667     0          
T        Si     0.539400000000     0.793900000000     0.564300000000     0          
T        Si     0.708900000000     0.904033333333     0.539966666667     0          
T        Si     0.691000000000     0.981300000000     0.540033333333     0          
T        Si     0.593500000000     0.912166666667     0.540300000000     0          
T        Si     0.530900000000     0.869266666667     0.540333333333     0          
O        O      0.409900000000     0.937433333333     0.620600000000     0          
O        O      0.347700000000     0.946600000000     0.615100000000     0          
O        O      0.386400000000     0.999100000000     0.601966666667     0          
O        O      0.388000000000     0.873200000000     0.614400000000     0          
O        O      0.448700000000     0.885833333333     0.602300000000     0          
O        O      0.325800000000     0.882300000000     0.621566666667     0          
O        O      0.348500000000     0.820700000000     0.602500000000     0          
O        O      0.287000000000     0.933266666667     0.602033333333     0          
O        O      0.389100000000     0.987266666667     0.534433333333     0          
O        O      0.441000000000     0.893533333333     0.534500000000     0          
O        O      0.347200000000     0.831366666667     0.534500000000     0          
O        O      0.295000000000     0.925000000000     0.534400000000     0          
O        O      0.323300000000     0.773366666667     0.560766666667     0          
O        O      0.385600000000     0.783466666667     0.560833333333     0          
O        O      0.342600000000     0.692666666667     0.559700000000     0          
O        O      0.401700000000     0.716900000000     0.558733333333     0          
O        O      0.239400000000     0.946866666667     0.558833333333     0          
O        O      0.289800000000     0.988366666667     0.560566666667     0          
O        O      0.454500000000     0.831300000000     0.559866666667     0          
O        O      0.498300000000     0.880866666667     0.559800000000     0          
O        O      0.287700000000     0.720566666667     0.540366666667     0          
O        O      0.443800000000     0.765533333333     0.541966666667     0          
T        Si     0.381000000000     0.964933333333     0.626100000000     0          
T        Si     0.418300000000     0.896600000000     0.626033333333     0          
T        Si     0.354900000000     0.854900000000     0.626200000000     0          
T        Si     0.317200000000     0.923200000000     0.626333333333     0          
T        Si     0.351200000000     0.802233333333     0.564666666667     0          
T        Si     0.379800000000     0.682466666667     0.563866666667     0          
T        Si     0.277700000000     0.948433333333     0.563966666667     0          
T        Si     0.460600000000     0.872766666667     0.564300000000     0          
T        Si     0.291100000000     0.762633333333     0.539966666667     0          
T        Si     0.309000000000     0.685366666667     0.540033333333     0          
T        Si     0.406500000000     0.754500000000     0.540300000000     0          
T        Si     0.469100000000     0.797400000000     0.540333333333     0          
O        O      0.090100000000     0.770766666667     0.379400000000     0          
O        O      0.152300000000     0.779933333333     0.384900000000     0          
O        O      0.113600000000     0.832433333333     0.398033333333     0          
O        O      0.112000000000     0.706533333333     0.385600000000     0          
O        O      0.051300000000     0.719166666667     0.397700000000     0          
O        O      0.174200000000     0.715633333333     0.378433333333     0          
O        O      0.151500000000     0.987366666667     0.397500000000     0          
O        O      0.213000000000     0.766600000000     0.397966666667     0          
O        O      0.110900000000     0.820600000000     0.465566666667     0          
O        O      0.059000000000     0.726866666667     0.465500000000     0          
O        O      0.152800000000     0.998033333333     0.465500000000     0          
O        O      0.205000000000     0.758333333333     0.465600000000     0          
O        O      0.176700000000     0.940033333333     0.439233333333     0          
O        O      0.114400000000     0.950133333333     0.439166666667     0          
O        O      0.157400000000     0.859333333333     0.440300000000     0          
O        O      0.098300000000     0.883566666667     0.441266666667     0          
O        O      0.260600000000     0.780200000000     0.441166666667     0          
O        O      0.210200000000     0.821700000000     0.439433333333     0          
O        O      0.045500000000     0.997966666667     0.440133333333     0          
O        O      0.001700000000     0.714200000000     0.440200000000     0          
O        O      0.212300000000     0.887233333333     0.459633333333     0          
O        O      0.056200000000     0.932200000000     0.458033333333     0          
T        Si     0.119000000000     0.798266666667     0.373900000000     0          
T        Si     0.081700000000     0.729933333333     0.373966666667     0          
T        Si     0.145100000000     0.688233333333     0.373800000000     0          
T        Si     0.182800000000     0.756533333333     0.373666666667     0          
T        Si     0.148800000000     0.968900000000     0.435333333333     0          
T        Si     0.120200000000     0.849133333333     0.436133333333     0          
T        Si     0.222300000000     0.781766666667     0.436033333333     0          
T        Si     0.039400000000     0.706100000000     0.435700000000     0          
T        Si     0.208900000000     0.929300000000     0.460033333333     0          
T        Si     0.191000000000     0.852033333333     0.459966666667     0          
T        Si     0.093500000000     0.921166666667     0.459700000000     0          
T        Si     0.030900000000     0.964066666667     0.459666666667     0          
O        O      0.909900000000     0.895900000000     0.379400000000     0          
O        O      0.847700000000     0.886733333333     0.384900000000     0          
O        O      0.886400000000     0.834233333333     0.398033333333     0          
O        O      0.888000000000     0.960133333333     0.385600000000     0          
O        O      0.948700000000     0.947500000000     0.397700000000     0          
O        O      0.825800000000     0.951033333333     0.378433333333     0          
O        O      0.848500000000     0.679300000000     0.397500000000     0          
O        O      0.787000000000     0.900066666667     0.397966666667     0          
O        O      0.889100000000     0.846066666667     0.465566666667     0          
O        O      0.941000000000     0.939800000000     0.465500000000     0          
O        O      0.847200000000     0.668633333333     0.465500000000     0          
O        O      0.795000000000     0.908333333333     0.465600000000     0          
O        O      0.823300000000     0.726633333333     0.439233333333     0          
O        O      0.885600000000     0.716533333333     0.439166666667     0          
O        O      0.842600000000     0.807333333333     0.440300000000     0          
O        O      0.901700000000     0.783100000000     0.441266666667     0          
O        O      0.739400000000     0.886466666667     0.441166666667     0          
O        O      0.789800000000     0.844966666667     0.439433333333     0          
O        O      0.954500000000     0.668700000000     0.440133333333     0          
O        O      0.998300000000     0.952466666667     0.440200000000     0          
O        O      0.787700000000     0.779433333333     0.459633333333     0          
O        O      0.943800000000     0.734466666667     0.458033333333     0          
T        Si     0.881000000000     0.868400000000     0.373900000000     0          
T        Si     0.918300000000     0.936733333333     0.373966666667     0          
T        Si     0.854900000000     0.978433333333     0.373800000000     0          
T        Si     0.817200000000     0.910133333333     0.373666666667     0          
T        Si     0.851200000000     0.697766666667     0.435333333333     0          
T        Si     0.879800000000     0.817533333333     0.436133333333     0          
T        Si     0.777700000000     0.884900000000     0.436033333333     0          
T        Si     0.960600000000     0.960566666667     0.435700000000     0          
T        Si     0.791100000000     0.737366666667     0.460033333333     0          
T        Si     0.809000000000     0.814633333333     0.459966666667     0          
T        Si     0.906500000000     0.745500000000     0.459700000000     0          
T        Si     0.969100000000     0.702600000000     0.459666666667     0          
O        O      0.409900000000     0.937433333333     0.712733333333     0          
O        O      0.379400000000     0.976533333333     0.666666666667     0          
O        O      0.347700000000     0.946600000000     0.718233333333     0          
O        O      0.386400000000     0.999100000000     0.731366666667     0          
O        O      0.426400000000     0.889333333333     0.666666666667     0          
O        O      0.388000000000     0.873200000000     0.718933333333     0          
O        O      0.448700000000     0.885833333333     0.731033333333     0          
O        O      0.357500000000     0.843200000000     0.666666666667     0          
O        O      0.325800000000     0.882300000000     0.711766666667     0          
O        O      0.348500000000     0.820700000000     0.730833333333     0          
O        O      0.308400000000     0.930933333333     0.666666666667     0          
O        O      0.287000000000     0.933266666667     0.731300000000     0          
O        O      0.397100000000     0.928533333333     0.833333333333     0          
O        O      0.340600000000     0.958633333333     0.833333333333     0          
O        O      0.389100000000     0.987266666667     0.798900000000     0          
O        O      0.395500000000     0.859866666667     0.833333333333     0          
O        O      0.441000000000     0.893533333333     0.798833333333     0          
O        O      0.339000000000     0.890000000000     0.833333333333     0          
O        O      0.347200000000     0.831366666667     0.798833333333     0          
O        O      0.295000000000     0.925000000000     0.798933333333     0          
O        O      0.323300000000     0.773366666667     0.772566666667     0          
O        O      0.385600000000     0.783466666667     0.772500000000     0          
O        O      0.342600000000     0.692666666667     0.773633333333     0          
O        O      0.401700000000     0.716900000000     0.774600000000     0          
O        O      0.239400000000     0.946866666667     0.774500000000     0          
O        O      0.289800000000     0.988366666667     0.772766666667     0          
O        O      0.454500000000     0.831300000000     0.773466666667     0          
O        O      0.498300000000     0.880866666667     0.773533333333     0          
O        O      0.293400000000     0.776000000000     0.833333333333     0          
O        O      0.287700000000     0.720566666667     0.792966666667     0          
O        O      0.315400000000     0.673833333333     0.833333333333     0          
O        O      0.395200000000     0.752500000000     0.833333333333     0          
O        O      0.443800000000     0.765533333333     0.791366666667     0          
O        O      0.476600000000     0.806733333333     0.833333333333     0          
T        Si     0.381000000000     0.964933333333     0.707233333333     0          
T        Si     0.418300000000     0.896600000000     0.707300000000     0          
T        Si     0.354900000000     0.854900000000     0.707133333333     0          
T        Si     0.317200000000     0.923200000000     0.707000000000     0          
T        Si     0.378700000000     0.965633333333     0.833333333333     0          
T        Si     0.418700000000     0.893633333333     0.833333333333     0          
T        Si     0.357400000000     0.852900000000     0.833333333333     0          
T        Si     0.317400000000     0.924900000000     0.833333333333     0          
T        Si     0.351200000000     0.802233333333     0.768666666667     0          
T        Si     0.379800000000     0.682466666667     0.769466666667     0          
T        Si     0.277700000000     0.948433333333     0.769366666667     0          
T        Si     0.460600000000     0.872766666667     0.769033333333     0          
T        Si     0.291100000000     0.762633333333     0.793366666667     0          
T        Si     0.309000000000     0.685366666667     0.793300000000     0          
T        Si     0.406500000000     0.754500000000     0.793033333333     0          
T        Si     0.469100000000     0.797400000000     0.793000000000     0          
O        O      0.590100000000     0.729233333333     0.712733333333     0          
O        O      0.620600000000     0.690133333333     0.666666666667     0          
O        O      0.652300000000     0.720066666667     0.718233333333     0          
O        O      0.613600000000     0.667566666667     0.731366666667     0          
O        O      0.573600000000     0.777333333333     0.666666666667     0          
O        O      0.612000000000     0.793466666667     0.718933333333     0          
O        O      0.551300000000     0.780833333333     0.731033333333     0          
O        O      0.642500000000     0.823466666667     0.666666666667     0          
O        O      0.674200000000     0.784366666667     0.711766666667     0          
O        O      0.651500000000     0.845966666667     0.730833333333     0          
O        O      0.691600000000     0.735733333333     0.666666666667     0          
O        O      0.713000000000     0.733400000000     0.731300000000     0          
O        O      0.602900000000     0.738133333333     0.833333333333     0          
O        O      0.659400000000     0.708033333333     0.833333333333     0          
O        O      0.610900000000     0.679400000000     0.798900000000     0          
O        O      0.604500000000     0.806800000000     0.833333333333     0          
O        O      0.559000000000     0.773133333333     0.798833333333     0          
O        O      0.661000000000     0.776666666667     0.833333333333     0          
O        O      0.652800000000     0.835300000000     0.798833333333     0          
O        O      0.705000000000     0.741666666667     0.798933333333     0          
O        O      0.676700000000     0.893300000000     0.772566666667     0          
O        O      0.614400000000     0.883200000000     0.772500000000     0          
O        O      0.657400000000     0.974000000000     0.773633333333     0          
O        O      0.598300000000     0.949766666667     0.774600000000     0          
O        O      0.760600000000     0.719800000000     0.774500000000     0          
O        O      0.710200000000     0.678300000000     0.772766666667     0          
O        O      0.545500000000     0.835366666667     0.773466666667     0          
O        O      0.501700000000     0.785800000000     0.773533333333     0          
O        O      0.706600000000     0.890666666667     0.833333333333     0          
O        O      0.712300000000     0.946100000000     0.792966666667     0          
O        O      0.684600000000     0.992833333333     0.833333333333     0          
O        O      0.604800000000     0.914166666667     0.833333333333     0          
O        O      0.556200000000     0.901133333333     0.791366666667     0          
O        O      0.523400000000     0.859933333333     0.833333333333     0          
T        Si     0.619000000000     0.701733333333     0.707233333333     0          
T        Si     0.581700000000     0.770066666667     0.707300000000     0          
T        Si     0.645100000000     0.811766666667     0.707133333333     0          
T        Si     0.682800000000     0.743466666667     0.707000000000     0          
T        Si     0.621300000000     0.701033333333     0.833333333333     0          
T        Si     0.581300000000     0.773033333333     0.833333333333     0          
T        Si     0.642600000000     0.813766666667     0.833333333333     0          
T        Si     0.682600000000     0.741766666667     0.833333333333     0          
T        Si     0.648800000000     0.864433333333     0.768666666667     0          
T        Si     0.620200000000     0.984200000000     0.769466666667     0          
T        Si     0.722300000000     0.718233333333     0.769366666667     0          
T        Si     0.539400000000     0.793900000000     0.769033333333     0          
T        Si     0.708900000000     0.904033333333     0.793366666667     0          
T        Si     0.691000000000     0.981300000000     0.793300000000     0          
T        Si     0.593500000000     0.912166666667     0.793033333333     0          
T        Si     0.530900000000     0.869266666667     0.793000000000     0          
O        O      0.909900000000     0.895900000000     0.953933333333     0          
O        O      0.879400000000     0.856800000000     0.666666666667     0          
O        O      0.847700000000     0.886733333333     0.948433333333     0          
O        O      0.886400000000     0.834233333333     0.935300000000     0          
O        O      0.926400000000     0.944000000000     0.666666666667     0          
O        O      0.888000000000     0.960133333333     0.947733333333     0          
O        O      0.948700000000     0.947500000000     0.935633333333     0          
O        O      0.857500000000     0.990133333333     0.666666666667     0          
O        O      0.825800000000     0.951033333333     0.954900000000     0          
O        O      0.848500000000     0.679300000000     0.935833333333     0          
O        O      0.808400000000     0.902400000000     0.666666666667     0          
O        O      0.787000000000     0.900066666667     0.935366666667     0          
O        O      0.897100000000     0.904800000000     0.833333333333     0          
O        O      0.840600000000     0.874700000000     0.833333333333     0          
O        O      0.889100000000     0.846066666667     0.867766666667     0          
O        O      0.895500000000     0.973466666667     0.833333333333     0          
O        O      0.941000000000     0.939800000000     0.867833333333     0          
O        O      0.839000000000     0.943333333333     0.833333333333     0          
O        O      0.847200000000     0.668633333333     0.867833333333     0          
O        O      0.795000000000     0.908333333333     0.867733333333     0          
O        O      0.823300000000     0.726633333333     0.894100000000     0          
O        O      0.885600000000     0.716533333333     0.894166666667     0          
O        O      0.842600000000     0.807333333333     0.893033333333     0          
O        O      0.901700000000     0.783100000000     0.892066666667     0          
O        O      0.739400000000     0.886466666667     0.892166666667     0          
O        O      0.789800000000     0.844966666667     0.893900000000     0          
O        O      0.954500000000     0.668700000000     0.893200000000     0          
O        O      0.998300000000     0.952466666667     0.893133333333     0          
O        O      0.793400000000     0.724000000000     0.833333333333     0          
O        O      0.787700000000     0.779433333333     0.873700000000     0          
O        O      0.815400000000     0.826166666667     0.833333333333     0          
O        O      0.895200000000     0.747500000000     0.833333333333     0          
O        O      0.943800000000     0.734466666667     0.875300000000     0          
O        O      0.976600000000     0.693266666667     0.833333333333     0          
T        Si     0.881000000000     0.868400000000     0.959433333333     0          
T        Si     0.918300000000     0.936733333333     0.959366666667     0          
T        Si     0.854900000000     0.978433333333     0.959533333333     0          
T        Si     0.817200000000     0.910133333333     0.959666666667     0          
T        Si     0.878700000000     0.867700000000     0.833333333333     0          
T        Si     0.918700000000     0.939700000000     0.833333333333     0          
T        Si     0.857400000000     0.980433333333     0.833333333333     0          
T        Si     0.817400000000     0.908433333333     0.833333333333     0          
T        Si     0.851200000000     0.697766666667     0.898000000000     0          
T        Si     0.879800000000     0.817533333333     0.897200000000     0          
T        Si     0.777700000000     0.884900000000     0.897300000000     0          
T        Si     0.960600000000     0.960566666667     0.897633333333     0          
T        Si     0.791100000000     0.737366666667     0.873300000000     0          
T        Si     0.809000000000     0.814633333333     0.873366666667     0          
T        Si     0.906500000000     0.745500000000     0.873633333333     0          
T        Si     0.969100000000     0.702600000000     0.873666666667     0          
O        O      0.090100000000     0.770766666667     0.953933333333     0          
O        O      0.120600000000     0.809866666667     0.666666666667     0          
O        O      0.152300000000     0.779933333333     0.948433333333     0          
O        O      0.113600000000     0.832433333333     0.935300000000     0          
O        O      0.073600000000     0.722666666667     0.666666666667     0          
O        O      0.112000000000     0.706533333333     0.947733333333     0          
O        O      0.051300000000     0.719166666667     0.935633333333     0          
O        O      0.142500000000     0.676533333333     0.666666666667     0          
O        O      0.174200000000     0.715633333333     0.954900000000     0          
O        O      0.151500000000     0.987366666667     0.935833333333     0          
O        O      0.191600000000     0.764266666667     0.666666666667     0          
O        O      0.213000000000     0.766600000000     0.935366666667     0          
O        O      0.102900000000     0.761866666667     0.833333333333     0          
O        O      0.159400000000     0.791966666667     0.833333333333     0          
O        O      0.110900000000     0.820600000000     0.867766666667     0          
O        O      0.104500000000     0.693200000000     0.833333333333     0          
O        O      0.059000000000     0.726866666667     0.867833333333     0          
O        O      0.161000000000     0.723333333333     0.833333333333     0          
O        O      0.152800000000     0.998033333333     0.867833333333     0          
O        O      0.205000000000     0.758333333333     0.867733333333     0          
O        O      0.176700000000     0.940033333333     0.894100000000     0          
O        O      0.114400000000     0.950133333333     0.894166666667     0          
O        O      0.157400000000     0.859333333333     0.893033333333     0          
O        O      0.098300000000     0.883566666667     0.892066666667     0          
O        O      0.260600000000     0.780200000000     0.892166666667     0          
O        O      0.210200000000     0.821700000000     0.893900000000     0          
O        O      0.045500000000     0.997966666667     0.893200000000     0          
O        O      0.001700000000     0.714200000000     0.893133333333     0          
O        O      0.206600000000     0.942666666667     0.833333333333     0          
O        O      0.212300000000     0.887233333333     0.873700000000     0          
O        O      0.184600000000     0.840500000000     0.833333333333     0          
O        O      0.104800000000     0.919166666667     0.833333333333     0          
O        O      0.056200000000     0.932200000000     0.875300000000     0          
O        O      0.023400000000     0.973400000000     0.833333333333     0          
T        Si     0.119000000000     0.798266666667     0.959433333333     0          
T        Si     0.081700000000     0.729933333333     0.959366666667     0          
T        Si     0.145100000000     0.688233333333     0.959533333333     0          
T        Si     0.182800000000     0.756533333333     0.959666666667     0          
T        Si     0.121300000000     0.798966666667     0.833333333333     0          
T        Si     0.081300000000     0.726966666667     0.833333333333     0          
T        Si     0.142600000000     0.686233333333     0.833333333333     0          
T        Si     0.182600000000     0.758233333333     0.833333333333     0          
T        Si     0.148800000000     0.968900000000     0.898000000000     0          
T        Si     0.120200000000     0.849133333333     0.897200000000     0          
T        Si     0.222300000000     0.781766666667     0.897300000000     0          
T        Si     0.039400000000     0.706100000000     0.897633333333     0          
T        Si     0.208900000000     0.929300000000     0.873300000000     0          
T        Si     0.191000000000     0.852033333333     0.873366666667     0          
T        Si     0.093500000000     0.921166666667     0.873633333333     0          
T        Si     0.030900000000     0.964066666667     0.873666666667     0          
O        O      0.590100000000     0.729233333333     0.953933333333     0          
O        O      0.652300000000     0.720066666667     0.948433333333     0          
O        O      0.613600000000     0.667566666667     0.935300000000     0          
O        O      0.612000000000     0.793466666667     0.947733333333     0          
O        O      0.551300000000     0.780833333333     0.935633333333     0          
O        O      0.674200000000     0.784366666667     0.954900000000     0          
O        O      0.651500000000     0.845966666667     0.935833333333     0          
O        O      0.713000000000     0.733400000000     0.935366666667     0          
O        O      0.610900000000     0.679400000000     0.867766666667     0          
O        O      0.559000000000     0.773133333333     0.867833333333     0          
O        O      0.652800000000     0.835300000000     0.867833333333     0          
O        O      0.705000000000     0.741666666667     0.867733333333     0          
O        O      0.676700000000     0.893300000000     0.894100000000     0          
O        O      0.614400000000     0.883200000000     0.894166666667     0          
O        O      0.657400000000     0.974000000000     0.893033333333     0          
O        O      0.598300000000     0.949766666667     0.892066666667     0          
O        O      0.760600000000     0.719800000000     0.892166666667     0          
O        O      0.710200000000     0.678300000000     0.893900000000     0          
O        O      0.545500000000     0.835366666667     0.893200000000     0          
O        O      0.501700000000     0.785800000000     0.893133333333     0          
O        O      0.712300000000     0.946100000000     0.873700000000     0          
O        O      0.556200000000     0.901133333333     0.875300000000     0          
T        Si     0.619000000000     0.701733333333     0.959433333333     0          
T        Si     0.581700000000     0.770066666667     0.959366666667     0          
T        Si     0.645100000000     0.811766666667     0.959533333333     0          
T        Si     0.682800000000     0.743466666667     0.959666666667     0          
T        Si     0.648800000000     0.864433333333     0.898000000000     0          
T        Si     0.620200000000     0.984200000000     0.897200000000     0          
T        Si     0.722300000000     0.718233333333     0.897300000000     0          
T        Si     0.539400000000     0.793900000000     0.897633333333     0          
T        Si     0.708900000000     0.904033333333     0.873300000000     0          
T        Si     0.691000000000     0.981300000000     0.873366666667     0          
T        Si     0.593500000000     0.912166666667     0.873633333333     0          
T        Si     0.530900000000     0.869266666667     0.873666666667     0          
O        O      0.409900000000     0.937433333333     0.953933333333     0          
O        O      0.347700000000     0.946600000000     0.948433333333     0          
O        O      0.386400000000     0.999100000000     0.935300000000     0          
O        O      0.388000000000     0.873200000000     0.947733333333     0          
O        O      0.448700000000     0.885833333333     0.935633333333     0          
O        O      0.325800000000     0.882300000000     0.954900000000     0          
O        O      0.348500000000     0.820700000000     0.935833333333     0          
O        O      0.287000000000     0.933266666667     0.935366666667     0          
O        O      0.389100000000     0.987266666667     0.867766666667     0          
O        O      0.441000000000     0.893533333333     0.867833333333     0          
O        O      0.347200000000     0.831366666667     0.867833333333     0          
O        O      0.295000000000     0.925000000000     0.867733333333     0          
O        O      0.323300000000     0.773366666667     0.894100000000     0          
O        O      0.385600000000     0.783466666667     0.894166666667     0          
O        O      0.342600000000     0.692666666667     0.893033333333     0          
O        O      0.401700000000     0.716900000000     0.892066666667     0          
O        O      0.239400000000     0.946866666667     0.892166666667     0          
O        O      0.289800000000     0.988366666667     0.893900000000     0          
O        O      0.454500000000     0.831300000000     0.893200000000     0          
O        O      0.498300000000     0.880866666667     0.893133333333     0          
O        O      0.287700000000     0.720566666667     0.873700000000     0          
O        O      0.443800000000     0.765533333333     0.875300000000     0          
T        Si     0.381000000000     0.964933333333     0.959433333333     0          
T        Si     0.418300000000     0.896600000000     0.959366666667     0          
T        Si     0.354900000000     0.854900000000     0.959533333333     0          
T        Si     0.317200000000     0.923200000000     0.959666666667     0          
T        Si     0.351200000000     0.802233333333     0.898000000000     0          
T        Si     0.379800000000     0.682466666667     0.897200000000     0          
T        Si     0.277700000000     0.948433333333     0.897300000000     0          
T        Si     0.460600000000     0.872766666667     0.897633333333     0          
T        Si     0.291100000000     0.762633333333     0.873300000000     0          
T        Si     0.309000000000     0.685366666667     0.873366666667     0          
T        Si     0.406500000000     0.754500000000     0.873633333333     0          
T        Si     0.469100000000     0.797400000000     0.873666666667     0          
O        O      0.090100000000     0.770766666667     0.712733333333     0          
O        O      0.152300000000     0.779933333333     0.718233333333     0          
O        O      0.113600000000     0.832433333333     0.731366666667     0          
O        O      0.112000000000     0.706533333333     0.718933333333     0          
O        O      0.051300000000     0.719166666667     0.731033333333     0          
O        O      0.174200000000     0.715633333333     0.711766666667     0          
O        O      0.151500000000     0.987366666667     0.730833333333     0          
O        O      0.213000000000     0.766600000000     0.731300000000     0          
O        O      0.110900000000     0.820600000000     0.798900000000     0          
O        O      0.059000000000     0.726866666667     0.798833333333     0          
O        O      0.152800000000     0.998033333333     0.798833333333     0          
O        O      0.205000000000     0.758333333333     0.798933333333     0          
O        O      0.176700000000     0.940033333333     0.772566666667     0          
O        O      0.114400000000     0.950133333333     0.772500000000     0          
O        O      0.157400000000     0.859333333333     0.773633333333     0          
O        O      0.098300000000     0.883566666667     0.774600000000     0          
O        O      0.260600000000     0.780200000000     0.774500000000     0          
O        O      0.210200000000     0.821700000000     0.772766666667     0          
O        O      0.045500000000     0.997966666667     0.773466666667     0          
O        O      0.001700000000     0.714200000000     0.773533333333     0          
O        O      0.212300000000     0.887233333333     0.792966666667     0          
O        O      0.056200000000     0.932200000000     0.791366666667     0          
T        Si     0.119000000000     0.798266666667     0.707233333333     0          
T        Si     0.081700000000     0.729933333333     0.707300000000     0          
T        Si     0.145100000000     0.688233333333     0.707133333333     0          
T        Si     0.182800000000     0.756533333333     0.707000000000     0          
T        Si     0.148800000000     0.968900000000     0.768666666667     0          
T        Si     0.120200000000     0.849133333333     0.769466666667     0          
T        Si     0.222300000000     0.781766666667     0.769366666667     0          
T        Si     0.039400000000     0.706100000000     0.769033333333     0          
T        Si     0.208900000000     0.929300000000     0.793366666667     0          
T        Si     0.191000000000     0.852033333333     0.793300000000     0          
T        Si     0.093500000000     0.921166666667     0.793033333333     0          
T        Si     0.030900000000     0.964066666667     0.793000000000     0          
O        O      0.909900000000     0.895900000000     0.712733333333     0          
O        O      0.847700000000     0.886733333333     0.718233333333     0          
O        O      0.886400000000     0.834233333333     0.731366666667     0          
O        O      0.888000000000     0.960133333333     0.718933333333     0          
O        O      0.948700000000     0.947500000000     0.731033333333     0          
O        O      0.825800000000     0.951033333333     0.711766666667     0          
O        O      0.848500000000     0.679300000000     0.730833333333     0          
O        O      0.787000000000     0.900066666667     0.731300000000     0          
O        O      0.889100000000     0.846066666667     0.798900000000     0          
O        O      0.941000000000     0.939800000000     0.798833333333     0          
O        O      0.847200000000     0.668633333333     0.798833333333     0          
O        O      0.795000000000     0.908333333333     0.798933333333     0          
O        O      0.823300000000     0.726633333333     0.772566666667     0          
O        O      0.885600000000     0.716533333333     0.772500000000     0          
O        O      0.842600000000     0.807333333333     0.773633333333     0          
O        O      0.901700000000     0.783100000000     0.774600000000     0          
O        O      0.739400000000     0.886466666667     0.774500000000     0          
O        O      0.789800000000     0.844966666667     0.772766666667     0          
O        O      0.954500000000     0.668700000000     0.773466666667     0          
O        O      0.998300000000     0.952466666667     0.773533333333     0          
O        O      0.787700000000     0.779433333333     0.792966666667     0          
O        O      0.943800000000     0.734466666667     0.791366666667     0          
T        Si     0.881000000000     0.868400000000     0.707233333333     0          
T        Si     0.918300000000     0.936733333333     0.707300000000     0          
T        Si     0.854900000000     0.978433333333     0.707133333333     0          
T        Si     0.817200000000     0.910133333333     0.707000000000     0          
T        Si     0.851200000000     0.697766666667     0.768666666667     0          
T        Si     0.879800000000     0.817533333333     0.769466666667     0          
T        Si     0.777700000000     0.884900000000     0.769366666667     0          
T        Si     0.960600000000     0.960566666667     0.769033333333     0          
T        Si     0.791100000000     0.737366666667     0.793366666667     0          
T        Si     0.809000000000     0.814633333333     0.793300000000     0          
T        Si     0.906500000000     0.745500000000     0.793033333333     0          
T        Si     0.969100000000     0.702600000000     0.793000000000     0          


