data_zeolite

_audit_creation_method RASPA-1.0
_audit_creation_date 2021-6-7
_audit_author_name ''

_cell_length_a    25.748
_cell_length_b    25.748
_cell_length_c    25.674
_cell_angle_alpha 90
_cell_angle_beta  90
_cell_angle_gamma 90
_cell_volume      17020.8

_symmetry_cell_setting          tetragonal
_symmetry_space_group_name_Hall 'P 1'
_symmetry_space_group_name_H-M  'P 1'
_symmetry_Int_Tables_number     1

_symmetry_equiv_pos_as_xyz 'x,y,z'

loop_
_atom_site_label
_atom_site_type_symbol
_atom_site_fract_x
_atom_site_fract_y
_atom_site_fract_z
_atom_site_charge
O        O      0.072550000000     0.059750000000     0.000000000000     0          
O        O      0.066850000000     0.000000000000     0.082500000000     0          
O        O      0.000000000000     0.076200000000     0.070200000000     0          
O        O      0.097950000000     0.097250000000     0.091300000000     0          
O        O      0.199000000000     0.081850000000     0.910600000000     0          
O        O      0.160800000000     0.167750000000     0.948900000000     0          
O        O      0.158200000000     0.152000000000     0.847800000000     0          
O        O      0.250000000000     0.000000000000     0.057300000000     0          
O        O      0.250000000000     0.084250000000     0.000000000000     0          
O        O      0.250000000000     0.166300000000     0.000000000000     0          
O        O      0.192050000000     0.250000000000     0.000000000000     0          
O        O      0.176500000000     0.176500000000     0.250000000000     0          
O        O      0.250000000000     0.186300000000     0.179500000000     0          
O        O      0.170350000000     0.250000000000     0.179200000000     0          
T        Si     0.153950000000     0.124700000000     0.904000000000     0          
T        Si     0.059250000000     0.058400000000     0.061200000000     0          
T        Si     0.188700000000     0.191200000000     0.190300000000     0          
T        Si     0.250000000000     0.062400000000     0.058800000000     0          
T        Si     0.191150000000     0.187600000000     0.000000000000     0          
O        O      0.440250000000     0.072550000000     0.500000000000     0          
O        O      0.000000000000     0.066850000000     0.582500000000     0          
O        O      0.423800000000     0.000000000000     0.570200000000     0          
O        O      0.402750000000     0.097950000000     0.591300000000     0          
O        O      0.418150000000     0.199000000000     0.410600000000     0          
O        O      0.332250000000     0.160800000000     0.448900000000     0          
O        O      0.348000000000     0.158200000000     0.347800000000     0          
O        O      0.000000000000     0.250000000000     0.557300000000     0          
O        O      0.415750000000     0.250000000000     0.500000000000     0          
O        O      0.333700000000     0.250000000000     0.500000000000     0          
O        O      0.250000000000     0.192050000000     0.500000000000     0          
O        O      0.323500000000     0.176500000000     0.750000000000     0          
O        O      0.313700000000     0.250000000000     0.679500000000     0          
O        O      0.250000000000     0.170350000000     0.679200000000     0          
T        Si     0.375300000000     0.153950000000     0.404000000000     0          
T        Si     0.441600000000     0.059250000000     0.561200000000     0          
T        Si     0.308800000000     0.188700000000     0.690300000000     0          
T        Si     0.437600000000     0.250000000000     0.558800000000     0          
T        Si     0.312400000000     0.191150000000     0.500000000000     0          
O        O      0.427450000000     0.440250000000     0.000000000000     0          
O        O      0.433150000000     0.000000000000     0.082500000000     0          
O        O      0.000000000000     0.423800000000     0.070200000000     0          
O        O      0.402050000000     0.402750000000     0.091300000000     0          
O        O      0.301000000000     0.418150000000     0.910600000000     0          
O        O      0.339200000000     0.332250000000     0.948900000000     0          
O        O      0.341800000000     0.348000000000     0.847800000000     0          
O        O      0.250000000000     0.415750000000     0.000000000000     0          
O        O      0.250000000000     0.333700000000     0.000000000000     0          
O        O      0.307950000000     0.250000000000     0.000000000000     0          
O        O      0.323500000000     0.323500000000     0.250000000000     0          
O        O      0.250000000000     0.313700000000     0.179500000000     0          
O        O      0.329650000000     0.250000000000     0.179200000000     0          
T        Si     0.346050000000     0.375300000000     0.904000000000     0          
T        Si     0.440750000000     0.441600000000     0.061200000000     0          
T        Si     0.311300000000     0.308800000000     0.190300000000     0          
T        Si     0.250000000000     0.437600000000     0.058800000000     0          
T        Si     0.308850000000     0.312400000000     0.000000000000     0          
O        O      0.059750000000     0.427450000000     0.500000000000     0          
O        O      0.000000000000     0.433150000000     0.582500000000     0          
O        O      0.076200000000     0.000000000000     0.570200000000     0          
O        O      0.097250000000     0.402050000000     0.591300000000     0          
O        O      0.081850000000     0.301000000000     0.410600000000     0          
O        O      0.167750000000     0.339200000000     0.448900000000     0          
O        O      0.152000000000     0.341800000000     0.347800000000     0          
O        O      0.084250000000     0.250000000000     0.500000000000     0          
O        O      0.166300000000     0.250000000000     0.500000000000     0          
O        O      0.250000000000     0.307950000000     0.500000000000     0          
O        O      0.176500000000     0.323500000000     0.750000000000     0          
O        O      0.186300000000     0.250000000000     0.679500000000     0          
O        O      0.250000000000     0.329650000000     0.679200000000     0          
T        Si     0.124700000000     0.346050000000     0.404000000000     0          
T        Si     0.058400000000     0.440750000000     0.561200000000     0          
T        Si     0.191200000000     0.311300000000     0.690300000000     0          
T        Si     0.062400000000     0.250000000000     0.558800000000     0          
T        Si     0.187600000000     0.308850000000     0.500000000000     0          
O        O      0.072550000000     0.440250000000     0.000000000000     0          
O        O      0.066850000000     0.000000000000     0.917500000000     0          
O        O      0.000000000000     0.423800000000     0.929800000000     0          
O        O      0.097950000000     0.402750000000     0.908700000000     0          
O        O      0.199000000000     0.418150000000     0.089400000000     0          
O        O      0.160800000000     0.332250000000     0.051100000000     0          
O        O      0.158200000000     0.348000000000     0.152200000000     0          
O        O      0.250000000000     0.000000000000     0.942700000000     0          
O        O      0.250000000000     0.313700000000     0.820500000000     0          
O        O      0.170350000000     0.250000000000     0.820800000000     0          
T        Si     0.153950000000     0.375300000000     0.096000000000     0          
T        Si     0.059250000000     0.441600000000     0.938800000000     0          
T        Si     0.188700000000     0.308800000000     0.809700000000     0          
T        Si     0.250000000000     0.437600000000     0.941200000000     0          
T        Si     0.191150000000     0.312400000000     0.000000000000     0          
O        O      0.059750000000     0.072550000000     0.500000000000     0          
O        O      0.000000000000     0.066850000000     0.417500000000     0          
O        O      0.076200000000     0.000000000000     0.429800000000     0          
O        O      0.097250000000     0.097950000000     0.408700000000     0          
O        O      0.081850000000     0.199000000000     0.589400000000     0          
O        O      0.167750000000     0.160800000000     0.551100000000     0          
O        O      0.152000000000     0.158200000000     0.652200000000     0          
O        O      0.000000000000     0.250000000000     0.442700000000     0          
O        O      0.186300000000     0.250000000000     0.320500000000     0          
O        O      0.250000000000     0.170350000000     0.320800000000     0          
T        Si     0.124700000000     0.153950000000     0.596000000000     0          
T        Si     0.058400000000     0.059250000000     0.438800000000     0          
T        Si     0.191200000000     0.188700000000     0.309700000000     0          
T        Si     0.062400000000     0.250000000000     0.441200000000     0          
T        Si     0.187600000000     0.191150000000     0.500000000000     0          
O        O      0.427450000000     0.059750000000     0.000000000000     0          
O        O      0.433150000000     0.000000000000     0.917500000000     0          
O        O      0.000000000000     0.076200000000     0.929800000000     0          
O        O      0.402050000000     0.097250000000     0.908700000000     0          
O        O      0.301000000000     0.081850000000     0.089400000000     0          
O        O      0.339200000000     0.167750000000     0.051100000000     0          
O        O      0.341800000000     0.152000000000     0.152200000000     0          
O        O      0.250000000000     0.186300000000     0.820500000000     0          
O        O      0.329650000000     0.250000000000     0.820800000000     0          
T        Si     0.346050000000     0.124700000000     0.096000000000     0          
T        Si     0.440750000000     0.058400000000     0.938800000000     0          
T        Si     0.311300000000     0.191200000000     0.809700000000     0          
T        Si     0.250000000000     0.062400000000     0.941200000000     0          
T        Si     0.308850000000     0.187600000000     0.000000000000     0          
O        O      0.440250000000     0.427450000000     0.500000000000     0          
O        O      0.000000000000     0.433150000000     0.417500000000     0          
O        O      0.423800000000     0.000000000000     0.429800000000     0          
O        O      0.402750000000     0.402050000000     0.408700000000     0          
O        O      0.418150000000     0.301000000000     0.589400000000     0          
O        O      0.332250000000     0.339200000000     0.551100000000     0          
O        O      0.348000000000     0.341800000000     0.652200000000     0          
O        O      0.313700000000     0.250000000000     0.320500000000     0          
O        O      0.250000000000     0.329650000000     0.320800000000     0          
T        Si     0.375300000000     0.346050000000     0.596000000000     0          
T        Si     0.441600000000     0.440750000000     0.438800000000     0          
T        Si     0.308800000000     0.311300000000     0.309700000000     0          
T        Si     0.437600000000     0.250000000000     0.441200000000     0          
T        Si     0.312400000000     0.308850000000     0.500000000000     0          
O        O      0.402050000000     0.402750000000     0.908700000000     0          
O        O      0.301000000000     0.418150000000     0.089400000000     0          
O        O      0.339200000000     0.332250000000     0.051100000000     0          
O        O      0.341800000000     0.348000000000     0.152200000000     0          
O        O      0.323500000000     0.323500000000     0.750000000000     0          
T        Si     0.346050000000     0.375300000000     0.096000000000     0          
T        Si     0.440750000000     0.441600000000     0.938800000000     0          
T        Si     0.311300000000     0.308800000000     0.809700000000     0          
O        O      0.097250000000     0.402050000000     0.408700000000     0          
O        O      0.081850000000     0.301000000000     0.589400000000     0          
O        O      0.167750000000     0.339200000000     0.551100000000     0          
O        O      0.152000000000     0.341800000000     0.652200000000     0          
O        O      0.176500000000     0.323500000000     0.250000000000     0          
T        Si     0.124700000000     0.346050000000     0.596000000000     0          
T        Si     0.058400000000     0.440750000000     0.438800000000     0          
T        Si     0.191200000000     0.311300000000     0.309700000000     0          
O        O      0.097950000000     0.097250000000     0.908700000000     0          
O        O      0.199000000000     0.081850000000     0.089400000000     0          
O        O      0.160800000000     0.167750000000     0.051100000000     0          
O        O      0.158200000000     0.152000000000     0.152200000000     0          
O        O      0.176500000000     0.176500000000     0.750000000000     0          
T        Si     0.153950000000     0.124700000000     0.096000000000     0          
T        Si     0.059250000000     0.058400000000     0.938800000000     0          
T        Si     0.188700000000     0.191200000000     0.809700000000     0          
O        O      0.402750000000     0.097950000000     0.408700000000     0          
O        O      0.418150000000     0.199000000000     0.589400000000     0          
O        O      0.332250000000     0.160800000000     0.551100000000     0          
O        O      0.348000000000     0.158200000000     0.652200000000     0          
O        O      0.323500000000     0.176500000000     0.250000000000     0          
T        Si     0.375300000000     0.153950000000     0.596000000000     0          
T        Si     0.441600000000     0.059250000000     0.438800000000     0          
T        Si     0.308800000000     0.188700000000     0.309700000000     0          
O        O      0.402050000000     0.097250000000     0.091300000000     0          
O        O      0.301000000000     0.081850000000     0.910600000000     0          
O        O      0.339200000000     0.167750000000     0.948900000000     0          
O        O      0.341800000000     0.152000000000     0.847800000000     0          
T        Si     0.346050000000     0.124700000000     0.904000000000     0          
T        Si     0.440750000000     0.058400000000     0.061200000000     0          
T        Si     0.311300000000     0.191200000000     0.190300000000     0          
O        O      0.402750000000     0.402050000000     0.591300000000     0          
O        O      0.418150000000     0.301000000000     0.410600000000     0          
O        O      0.332250000000     0.339200000000     0.448900000000     0          
O        O      0.348000000000     0.341800000000     0.347800000000     0          
T        Si     0.375300000000     0.346050000000     0.404000000000     0          
T        Si     0.441600000000     0.440750000000     0.561200000000     0          
T        Si     0.308800000000     0.311300000000     0.690300000000     0          
O        O      0.097950000000     0.402750000000     0.091300000000     0          
O        O      0.199000000000     0.418150000000     0.910600000000     0          
O        O      0.160800000000     0.332250000000     0.948900000000     0          
O        O      0.158200000000     0.348000000000     0.847800000000     0          
T        Si     0.153950000000     0.375300000000     0.904000000000     0          
T        Si     0.059250000000     0.441600000000     0.061200000000     0          
T        Si     0.188700000000     0.308800000000     0.190300000000     0          
O        O      0.097250000000     0.097950000000     0.591300000000     0          
O        O      0.081850000000     0.199000000000     0.410600000000     0          
O        O      0.167750000000     0.160800000000     0.448900000000     0          
O        O      0.152000000000     0.158200000000     0.347800000000     0          
T        Si     0.124700000000     0.153950000000     0.404000000000     0          
T        Si     0.058400000000     0.059250000000     0.561200000000     0          
T        Si     0.191200000000     0.188700000000     0.690300000000     0          
O        O      0.072550000000     0.559750000000     0.000000000000     0          
O        O      0.066850000000     0.500000000000     0.082500000000     0          
O        O      0.000000000000     0.576200000000     0.070200000000     0          
O        O      0.097950000000     0.597250000000     0.091300000000     0          
O        O      0.199000000000     0.581850000000     0.910600000000     0          
O        O      0.160800000000     0.667750000000     0.948900000000     0          
O        O      0.158200000000     0.652000000000     0.847800000000     0          
O        O      0.250000000000     0.500000000000     0.057300000000     0          
O        O      0.250000000000     0.584250000000     0.000000000000     0          
O        O      0.250000000000     0.666300000000     0.000000000000     0          
O        O      0.192050000000     0.750000000000     0.000000000000     0          
O        O      0.176500000000     0.676500000000     0.250000000000     0          
O        O      0.250000000000     0.686300000000     0.179500000000     0          
O        O      0.170350000000     0.750000000000     0.179200000000     0          
T        Si     0.153950000000     0.624700000000     0.904000000000     0          
T        Si     0.059250000000     0.558400000000     0.061200000000     0          
T        Si     0.188700000000     0.691200000000     0.190300000000     0          
T        Si     0.250000000000     0.562400000000     0.058800000000     0          
T        Si     0.191150000000     0.687600000000     0.000000000000     0          
O        O      0.440250000000     0.572550000000     0.500000000000     0          
O        O      0.000000000000     0.566850000000     0.582500000000     0          
O        O      0.423800000000     0.500000000000     0.570200000000     0          
O        O      0.402750000000     0.597950000000     0.591300000000     0          
O        O      0.418150000000     0.699000000000     0.410600000000     0          
O        O      0.332250000000     0.660800000000     0.448900000000     0          
O        O      0.348000000000     0.658200000000     0.347800000000     0          
O        O      0.000000000000     0.750000000000     0.557300000000     0          
O        O      0.415750000000     0.750000000000     0.500000000000     0          
O        O      0.333700000000     0.750000000000     0.500000000000     0          
O        O      0.250000000000     0.692050000000     0.500000000000     0          
O        O      0.323500000000     0.676500000000     0.750000000000     0          
O        O      0.313700000000     0.750000000000     0.679500000000     0          
O        O      0.250000000000     0.670350000000     0.679200000000     0          
T        Si     0.375300000000     0.653950000000     0.404000000000     0          
T        Si     0.441600000000     0.559250000000     0.561200000000     0          
T        Si     0.308800000000     0.688700000000     0.690300000000     0          
T        Si     0.437600000000     0.750000000000     0.558800000000     0          
T        Si     0.312400000000     0.691150000000     0.500000000000     0          
O        O      0.427450000000     0.940250000000     0.000000000000     0          
O        O      0.433150000000     0.500000000000     0.082500000000     0          
O        O      0.000000000000     0.923800000000     0.070200000000     0          
O        O      0.402050000000     0.902750000000     0.091300000000     0          
O        O      0.301000000000     0.918150000000     0.910600000000     0          
O        O      0.339200000000     0.832250000000     0.948900000000     0          
O        O      0.341800000000     0.848000000000     0.847800000000     0          
O        O      0.250000000000     0.915750000000     0.000000000000     0          
O        O      0.250000000000     0.833700000000     0.000000000000     0          
O        O      0.307950000000     0.750000000000     0.000000000000     0          
O        O      0.323500000000     0.823500000000     0.250000000000     0          
O        O      0.250000000000     0.813700000000     0.179500000000     0          
O        O      0.329650000000     0.750000000000     0.179200000000     0          
T        Si     0.346050000000     0.875300000000     0.904000000000     0          
T        Si     0.440750000000     0.941600000000     0.061200000000     0          
T        Si     0.311300000000     0.808800000000     0.190300000000     0          
T        Si     0.250000000000     0.937600000000     0.058800000000     0          
T        Si     0.308850000000     0.812400000000     0.000000000000     0          
O        O      0.059750000000     0.927450000000     0.500000000000     0          
O        O      0.000000000000     0.933150000000     0.582500000000     0          
O        O      0.076200000000     0.500000000000     0.570200000000     0          
O        O      0.097250000000     0.902050000000     0.591300000000     0          
O        O      0.081850000000     0.801000000000     0.410600000000     0          
O        O      0.167750000000     0.839200000000     0.448900000000     0          
O        O      0.152000000000     0.841800000000     0.347800000000     0          
O        O      0.084250000000     0.750000000000     0.500000000000     0          
O        O      0.166300000000     0.750000000000     0.500000000000     0          
O        O      0.250000000000     0.807950000000     0.500000000000     0          
O        O      0.176500000000     0.823500000000     0.750000000000     0          
O        O      0.186300000000     0.750000000000     0.679500000000     0          
O        O      0.250000000000     0.829650000000     0.679200000000     0          
T        Si     0.124700000000     0.846050000000     0.404000000000     0          
T        Si     0.058400000000     0.940750000000     0.561200000000     0          
T        Si     0.191200000000     0.811300000000     0.690300000000     0          
T        Si     0.062400000000     0.750000000000     0.558800000000     0          
T        Si     0.187600000000     0.808850000000     0.500000000000     0          
O        O      0.072550000000     0.940250000000     0.000000000000     0          
O        O      0.066850000000     0.500000000000     0.917500000000     0          
O        O      0.000000000000     0.923800000000     0.929800000000     0          
O        O      0.097950000000     0.902750000000     0.908700000000     0          
O        O      0.199000000000     0.918150000000     0.089400000000     0          
O        O      0.160800000000     0.832250000000     0.051100000000     0          
O        O      0.158200000000     0.848000000000     0.152200000000     0          
O        O      0.250000000000     0.500000000000     0.942700000000     0          
O        O      0.250000000000     0.813700000000     0.820500000000     0          
O        O      0.170350000000     0.750000000000     0.820800000000     0          
T        Si     0.153950000000     0.875300000000     0.096000000000     0          
T        Si     0.059250000000     0.941600000000     0.938800000000     0          
T        Si     0.188700000000     0.808800000000     0.809700000000     0          
T        Si     0.250000000000     0.937600000000     0.941200000000     0          
T        Si     0.191150000000     0.812400000000     0.000000000000     0          
O        O      0.059750000000     0.572550000000     0.500000000000     0          
O        O      0.000000000000     0.566850000000     0.417500000000     0          
O        O      0.076200000000     0.500000000000     0.429800000000     0          
O        O      0.097250000000     0.597950000000     0.408700000000     0          
O        O      0.081850000000     0.699000000000     0.589400000000     0          
O        O      0.167750000000     0.660800000000     0.551100000000     0          
O        O      0.152000000000     0.658200000000     0.652200000000     0          
O        O      0.000000000000     0.750000000000     0.442700000000     0          
O        O      0.186300000000     0.750000000000     0.320500000000     0          
O        O      0.250000000000     0.670350000000     0.320800000000     0          
T        Si     0.124700000000     0.653950000000     0.596000000000     0          
T        Si     0.058400000000     0.559250000000     0.438800000000     0          
T        Si     0.191200000000     0.688700000000     0.309700000000     0          
T        Si     0.062400000000     0.750000000000     0.441200000000     0          
T        Si     0.187600000000     0.691150000000     0.500000000000     0          
O        O      0.427450000000     0.559750000000     0.000000000000     0          
O        O      0.433150000000     0.500000000000     0.917500000000     0          
O        O      0.000000000000     0.576200000000     0.929800000000     0          
O        O      0.402050000000     0.597250000000     0.908700000000     0          
O        O      0.301000000000     0.581850000000     0.089400000000     0          
O        O      0.339200000000     0.667750000000     0.051100000000     0          
O        O      0.341800000000     0.652000000000     0.152200000000     0          
O        O      0.250000000000     0.686300000000     0.820500000000     0          
O        O      0.329650000000     0.750000000000     0.820800000000     0          
T        Si     0.346050000000     0.624700000000     0.096000000000     0          
T        Si     0.440750000000     0.558400000000     0.938800000000     0          
T        Si     0.311300000000     0.691200000000     0.809700000000     0          
T        Si     0.250000000000     0.562400000000     0.941200000000     0          
T        Si     0.308850000000     0.687600000000     0.000000000000     0          
O        O      0.440250000000     0.927450000000     0.500000000000     0          
O        O      0.000000000000     0.933150000000     0.417500000000     0          
O        O      0.423800000000     0.500000000000     0.429800000000     0          
O        O      0.402750000000     0.902050000000     0.408700000000     0          
O        O      0.418150000000     0.801000000000     0.589400000000     0          
O        O      0.332250000000     0.839200000000     0.551100000000     0          
O        O      0.348000000000     0.841800000000     0.652200000000     0          
O        O      0.313700000000     0.750000000000     0.320500000000     0          
O        O      0.250000000000     0.829650000000     0.320800000000     0          
T        Si     0.375300000000     0.846050000000     0.596000000000     0          
T        Si     0.441600000000     0.940750000000     0.438800000000     0          
T        Si     0.308800000000     0.811300000000     0.309700000000     0          
T        Si     0.437600000000     0.750000000000     0.441200000000     0          
T        Si     0.312400000000     0.808850000000     0.500000000000     0          
O        O      0.402050000000     0.902750000000     0.908700000000     0          
O        O      0.301000000000     0.918150000000     0.089400000000     0          
O        O      0.339200000000     0.832250000000     0.051100000000     0          
O        O      0.341800000000     0.848000000000     0.152200000000     0          
O        O      0.323500000000     0.823500000000     0.750000000000     0          
T        Si     0.346050000000     0.875300000000     0.096000000000     0          
T        Si     0.440750000000     0.941600000000     0.938800000000     0          
T        Si     0.311300000000     0.808800000000     0.809700000000     0          
O        O      0.097250000000     0.902050000000     0.408700000000     0          
O        O      0.081850000000     0.801000000000     0.589400000000     0          
O        O      0.167750000000     0.839200000000     0.551100000000     0          
O        O      0.152000000000     0.841800000000     0.652200000000     0          
O        O      0.176500000000     0.823500000000     0.250000000000     0          
T        Si     0.124700000000     0.846050000000     0.596000000000     0          
T        Si     0.058400000000     0.940750000000     0.438800000000     0          
T        Si     0.191200000000     0.811300000000     0.309700000000     0          
O        O      0.097950000000     0.597250000000     0.908700000000     0          
O        O      0.199000000000     0.581850000000     0.089400000000     0          
O        O      0.160800000000     0.667750000000     0.051100000000     0          
O        O      0.158200000000     0.652000000000     0.152200000000     0          
O        O      0.176500000000     0.676500000000     0.750000000000     0          
T        Si     0.153950000000     0.624700000000     0.096000000000     0          
T        Si     0.059250000000     0.558400000000     0.938800000000     0          
T        Si     0.188700000000     0.691200000000     0.809700000000     0          
O        O      0.402750000000     0.597950000000     0.408700000000     0          
O        O      0.418150000000     0.699000000000     0.589400000000     0          
O        O      0.332250000000     0.660800000000     0.551100000000     0          
O        O      0.348000000000     0.658200000000     0.652200000000     0          
O        O      0.323500000000     0.676500000000     0.250000000000     0          
T        Si     0.375300000000     0.653950000000     0.596000000000     0          
T        Si     0.441600000000     0.559250000000     0.438800000000     0          
T        Si     0.308800000000     0.688700000000     0.309700000000     0          
O        O      0.402050000000     0.597250000000     0.091300000000     0          
O        O      0.301000000000     0.581850000000     0.910600000000     0          
O        O      0.339200000000     0.667750000000     0.948900000000     0          
O        O      0.341800000000     0.652000000000     0.847800000000     0          
T        Si     0.346050000000     0.624700000000     0.904000000000     0          
T        Si     0.440750000000     0.558400000000     0.061200000000     0          
T        Si     0.311300000000     0.691200000000     0.190300000000     0          
O        O      0.402750000000     0.902050000000     0.591300000000     0          
O        O      0.418150000000     0.801000000000     0.410600000000     0          
O        O      0.332250000000     0.839200000000     0.448900000000     0          
O        O      0.348000000000     0.841800000000     0.347800000000     0          
T        Si     0.375300000000     0.846050000000     0.404000000000     0          
T        Si     0.441600000000     0.940750000000     0.561200000000     0          
T        Si     0.308800000000     0.811300000000     0.690300000000     0          
O        O      0.097950000000     0.902750000000     0.091300000000     0          
O        O      0.199000000000     0.918150000000     0.910600000000     0          
O        O      0.160800000000     0.832250000000     0.948900000000     0          
O        O      0.158200000000     0.848000000000     0.847800000000     0          
T        Si     0.153950000000     0.875300000000     0.904000000000     0          
T        Si     0.059250000000     0.941600000000     0.061200000000     0          
T        Si     0.188700000000     0.808800000000     0.190300000000     0          
O        O      0.097250000000     0.597950000000     0.591300000000     0          
O        O      0.081850000000     0.699000000000     0.410600000000     0          
O        O      0.167750000000     0.660800000000     0.448900000000     0          
O        O      0.152000000000     0.658200000000     0.347800000000     0          
T        Si     0.124700000000     0.653950000000     0.404000000000     0          
T        Si     0.058400000000     0.559250000000     0.561200000000     0          
T        Si     0.191200000000     0.688700000000     0.690300000000     0          
O        O      0.572550000000     0.059750000000     0.000000000000     0          
O        O      0.566850000000     0.000000000000     0.082500000000     0          
O        O      0.500000000000     0.076200000000     0.070200000000     0          
O        O      0.597950000000     0.097250000000     0.091300000000     0          
O        O      0.699000000000     0.081850000000     0.910600000000     0          
O        O      0.660800000000     0.167750000000     0.948900000000     0          
O        O      0.658200000000     0.152000000000     0.847800000000     0          
O        O      0.750000000000     0.000000000000     0.057300000000     0          
O        O      0.750000000000     0.084250000000     0.000000000000     0          
O        O      0.750000000000     0.166300000000     0.000000000000     0          
O        O      0.692050000000     0.250000000000     0.000000000000     0          
O        O      0.676500000000     0.176500000000     0.250000000000     0          
O        O      0.750000000000     0.186300000000     0.179500000000     0          
O        O      0.670350000000     0.250000000000     0.179200000000     0          
T        Si     0.653950000000     0.124700000000     0.904000000000     0          
T        Si     0.559250000000     0.058400000000     0.061200000000     0          
T        Si     0.688700000000     0.191200000000     0.190300000000     0          
T        Si     0.750000000000     0.062400000000     0.058800000000     0          
T        Si     0.691150000000     0.187600000000     0.000000000000     0          
O        O      0.940250000000     0.072550000000     0.500000000000     0          
O        O      0.500000000000     0.066850000000     0.582500000000     0          
O        O      0.923800000000     0.000000000000     0.570200000000     0          
O        O      0.902750000000     0.097950000000     0.591300000000     0          
O        O      0.918150000000     0.199000000000     0.410600000000     0          
O        O      0.832250000000     0.160800000000     0.448900000000     0          
O        O      0.848000000000     0.158200000000     0.347800000000     0          
O        O      0.500000000000     0.250000000000     0.557300000000     0          
O        O      0.915750000000     0.250000000000     0.500000000000     0          
O        O      0.833700000000     0.250000000000     0.500000000000     0          
O        O      0.750000000000     0.192050000000     0.500000000000     0          
O        O      0.823500000000     0.176500000000     0.750000000000     0          
O        O      0.813700000000     0.250000000000     0.679500000000     0          
O        O      0.750000000000     0.170350000000     0.679200000000     0          
T        Si     0.875300000000     0.153950000000     0.404000000000     0          
T        Si     0.941600000000     0.059250000000     0.561200000000     0          
T        Si     0.808800000000     0.188700000000     0.690300000000     0          
T        Si     0.937600000000     0.250000000000     0.558800000000     0          
T        Si     0.812400000000     0.191150000000     0.500000000000     0          
O        O      0.927450000000     0.440250000000     0.000000000000     0          
O        O      0.933150000000     0.000000000000     0.082500000000     0          
O        O      0.500000000000     0.423800000000     0.070200000000     0          
O        O      0.902050000000     0.402750000000     0.091300000000     0          
O        O      0.801000000000     0.418150000000     0.910600000000     0          
O        O      0.839200000000     0.332250000000     0.948900000000     0          
O        O      0.841800000000     0.348000000000     0.847800000000     0          
O        O      0.750000000000     0.415750000000     0.000000000000     0          
O        O      0.750000000000     0.333700000000     0.000000000000     0          
O        O      0.807950000000     0.250000000000     0.000000000000     0          
O        O      0.823500000000     0.323500000000     0.250000000000     0          
O        O      0.750000000000     0.313700000000     0.179500000000     0          
O        O      0.829650000000     0.250000000000     0.179200000000     0          
T        Si     0.846050000000     0.375300000000     0.904000000000     0          
T        Si     0.940750000000     0.441600000000     0.061200000000     0          
T        Si     0.811300000000     0.308800000000     0.190300000000     0          
T        Si     0.750000000000     0.437600000000     0.058800000000     0          
T        Si     0.808850000000     0.312400000000     0.000000000000     0          
O        O      0.559750000000     0.427450000000     0.500000000000     0          
O        O      0.500000000000     0.433150000000     0.582500000000     0          
O        O      0.576200000000     0.000000000000     0.570200000000     0          
O        O      0.597250000000     0.402050000000     0.591300000000     0          
O        O      0.581850000000     0.301000000000     0.410600000000     0          
O        O      0.667750000000     0.339200000000     0.448900000000     0          
O        O      0.652000000000     0.341800000000     0.347800000000     0          
O        O      0.584250000000     0.250000000000     0.500000000000     0          
O        O      0.666300000000     0.250000000000     0.500000000000     0          
O        O      0.750000000000     0.307950000000     0.500000000000     0          
O        O      0.676500000000     0.323500000000     0.750000000000     0          
O        O      0.686300000000     0.250000000000     0.679500000000     0          
O        O      0.750000000000     0.329650000000     0.679200000000     0          
T        Si     0.624700000000     0.346050000000     0.404000000000     0          
T        Si     0.558400000000     0.440750000000     0.561200000000     0          
T        Si     0.691200000000     0.311300000000     0.690300000000     0          
T        Si     0.562400000000     0.250000000000     0.558800000000     0          
T        Si     0.687600000000     0.308850000000     0.500000000000     0          
O        O      0.572550000000     0.440250000000     0.000000000000     0          
O        O      0.566850000000     0.000000000000     0.917500000000     0          
O        O      0.500000000000     0.423800000000     0.929800000000     0          
O        O      0.597950000000     0.402750000000     0.908700000000     0          
O        O      0.699000000000     0.418150000000     0.089400000000     0          
O        O      0.660800000000     0.332250000000     0.051100000000     0          
O        O      0.658200000000     0.348000000000     0.152200000000     0          
O        O      0.750000000000     0.000000000000     0.942700000000     0          
O        O      0.750000000000     0.313700000000     0.820500000000     0          
O        O      0.670350000000     0.250000000000     0.820800000000     0          
T        Si     0.653950000000     0.375300000000     0.096000000000     0          
T        Si     0.559250000000     0.441600000000     0.938800000000     0          
T        Si     0.688700000000     0.308800000000     0.809700000000     0          
T        Si     0.750000000000     0.437600000000     0.941200000000     0          
T        Si     0.691150000000     0.312400000000     0.000000000000     0          
O        O      0.559750000000     0.072550000000     0.500000000000     0          
O        O      0.500000000000     0.066850000000     0.417500000000     0          
O        O      0.576200000000     0.000000000000     0.429800000000     0          
O        O      0.597250000000     0.097950000000     0.408700000000     0          
O        O      0.581850000000     0.199000000000     0.589400000000     0          
O        O      0.667750000000     0.160800000000     0.551100000000     0          
O        O      0.652000000000     0.158200000000     0.652200000000     0          
O        O      0.500000000000     0.250000000000     0.442700000000     0          
O        O      0.686300000000     0.250000000000     0.320500000000     0          
O        O      0.750000000000     0.170350000000     0.320800000000     0          
T        Si     0.624700000000     0.153950000000     0.596000000000     0          
T        Si     0.558400000000     0.059250000000     0.438800000000     0          
T        Si     0.691200000000     0.188700000000     0.309700000000     0          
T        Si     0.562400000000     0.250000000000     0.441200000000     0          
T        Si     0.687600000000     0.191150000000     0.500000000000     0          
O        O      0.927450000000     0.059750000000     0.000000000000     0          
O        O      0.933150000000     0.000000000000     0.917500000000     0          
O        O      0.500000000000     0.076200000000     0.929800000000     0          
O        O      0.902050000000     0.097250000000     0.908700000000     0          
O        O      0.801000000000     0.081850000000     0.089400000000     0          
O        O      0.839200000000     0.167750000000     0.051100000000     0          
O        O      0.841800000000     0.152000000000     0.152200000000     0          
O        O      0.750000000000     0.186300000000     0.820500000000     0          
O        O      0.829650000000     0.250000000000     0.820800000000     0          
T        Si     0.846050000000     0.124700000000     0.096000000000     0          
T        Si     0.940750000000     0.058400000000     0.938800000000     0          
T        Si     0.811300000000     0.191200000000     0.809700000000     0          
T        Si     0.750000000000     0.062400000000     0.941200000000     0          
T        Si     0.808850000000     0.187600000000     0.000000000000     0          
O        O      0.940250000000     0.427450000000     0.500000000000     0          
O        O      0.500000000000     0.433150000000     0.417500000000     0          
O        O      0.923800000000     0.000000000000     0.429800000000     0          
O        O      0.902750000000     0.402050000000     0.408700000000     0          
O        O      0.918150000000     0.301000000000     0.589400000000     0          
O        O      0.832250000000     0.339200000000     0.551100000000     0          
O        O      0.848000000000     0.341800000000     0.652200000000     0          
O        O      0.813700000000     0.250000000000     0.320500000000     0          
O        O      0.750000000000     0.329650000000     0.320800000000     0          
T        Si     0.875300000000     0.346050000000     0.596000000000     0          
T        Si     0.941600000000     0.440750000000     0.438800000000     0          
T        Si     0.808800000000     0.311300000000     0.309700000000     0          
T        Si     0.937600000000     0.250000000000     0.441200000000     0          
T        Si     0.812400000000     0.308850000000     0.500000000000     0          
O        O      0.902050000000     0.402750000000     0.908700000000     0          
O        O      0.801000000000     0.418150000000     0.089400000000     0          
O        O      0.839200000000     0.332250000000     0.051100000000     0          
O        O      0.841800000000     0.348000000000     0.152200000000     0          
O        O      0.823500000000     0.323500000000     0.750000000000     0          
T        Si     0.846050000000     0.375300000000     0.096000000000     0          
T        Si     0.940750000000     0.441600000000     0.938800000000     0          
T        Si     0.811300000000     0.308800000000     0.809700000000     0          
O        O      0.597250000000     0.402050000000     0.408700000000     0          
O        O      0.581850000000     0.301000000000     0.589400000000     0          
O        O      0.667750000000     0.339200000000     0.551100000000     0          
O        O      0.652000000000     0.341800000000     0.652200000000     0          
O        O      0.676500000000     0.323500000000     0.250000000000     0          
T        Si     0.624700000000     0.346050000000     0.596000000000     0          
T        Si     0.558400000000     0.440750000000     0.438800000000     0          
T        Si     0.691200000000     0.311300000000     0.309700000000     0          
O        O      0.597950000000     0.097250000000     0.908700000000     0          
O        O      0.699000000000     0.081850000000     0.089400000000     0          
O        O      0.660800000000     0.167750000000     0.051100000000     0          
O        O      0.658200000000     0.152000000000     0.152200000000     0          
O        O      0.676500000000     0.176500000000     0.750000000000     0          
T        Si     0.653950000000     0.124700000000     0.096000000000     0          
T        Si     0.559250000000     0.058400000000     0.938800000000     0          
T        Si     0.688700000000     0.191200000000     0.809700000000     0          
O        O      0.902750000000     0.097950000000     0.408700000000     0          
O        O      0.918150000000     0.199000000000     0.589400000000     0          
O        O      0.832250000000     0.160800000000     0.551100000000     0          
O        O      0.848000000000     0.158200000000     0.652200000000     0          
O        O      0.823500000000     0.176500000000     0.250000000000     0          
T        Si     0.875300000000     0.153950000000     0.596000000000     0          
T        Si     0.941600000000     0.059250000000     0.438800000000     0          
T        Si     0.808800000000     0.188700000000     0.309700000000     0          
O        O      0.902050000000     0.097250000000     0.091300000000     0          
O        O      0.801000000000     0.081850000000     0.910600000000     0          
O        O      0.839200000000     0.167750000000     0.948900000000     0          
O        O      0.841800000000     0.152000000000     0.847800000000     0          
T        Si     0.846050000000     0.124700000000     0.904000000000     0          
T        Si     0.940750000000     0.058400000000     0.061200000000     0          
T        Si     0.811300000000     0.191200000000     0.190300000000     0          
O        O      0.902750000000     0.402050000000     0.591300000000     0          
O        O      0.918150000000     0.301000000000     0.410600000000     0          
O        O      0.832250000000     0.339200000000     0.448900000000     0          
O        O      0.848000000000     0.341800000000     0.347800000000     0          
T        Si     0.875300000000     0.346050000000     0.404000000000     0          
T        Si     0.941600000000     0.440750000000     0.561200000000     0          
T        Si     0.808800000000     0.311300000000     0.690300000000     0          
O        O      0.597950000000     0.402750000000     0.091300000000     0          
O        O      0.699000000000     0.418150000000     0.910600000000     0          
O        O      0.660800000000     0.332250000000     0.948900000000     0          
O        O      0.658200000000     0.348000000000     0.847800000000     0          
T        Si     0.653950000000     0.375300000000     0.904000000000     0          
T        Si     0.559250000000     0.441600000000     0.061200000000     0          
T        Si     0.688700000000     0.308800000000     0.190300000000     0          
O        O      0.597250000000     0.097950000000     0.591300000000     0          
O        O      0.581850000000     0.199000000000     0.410600000000     0          
O        O      0.667750000000     0.160800000000     0.448900000000     0          
O        O      0.652000000000     0.158200000000     0.347800000000     0          
T        Si     0.624700000000     0.153950000000     0.404000000000     0          
T        Si     0.558400000000     0.059250000000     0.561200000000     0          
T        Si     0.691200000000     0.188700000000     0.690300000000     0          
O        O      0.572550000000     0.559750000000     0.000000000000     0          
O        O      0.566850000000     0.500000000000     0.082500000000     0          
O        O      0.500000000000     0.576200000000     0.070200000000     0          
O        O      0.597950000000     0.597250000000     0.091300000000     0          
O        O      0.699000000000     0.581850000000     0.910600000000     0          
O        O      0.660800000000     0.667750000000     0.948900000000     0          
O        O      0.658200000000     0.652000000000     0.847800000000     0          
O        O      0.750000000000     0.500000000000     0.057300000000     0          
O        O      0.750000000000     0.584250000000     0.000000000000     0          
O        O      0.750000000000     0.666300000000     0.000000000000     0          
O        O      0.692050000000     0.750000000000     0.000000000000     0          
O        O      0.676500000000     0.676500000000     0.250000000000     0          
O        O      0.750000000000     0.686300000000     0.179500000000     0          
O        O      0.670350000000     0.750000000000     0.179200000000     0          
T        Si     0.653950000000     0.624700000000     0.904000000000     0          
T        Si     0.559250000000     0.558400000000     0.061200000000     0          
T        Si     0.688700000000     0.691200000000     0.190300000000     0          
T        Si     0.750000000000     0.562400000000     0.058800000000     0          
T        Si     0.691150000000     0.687600000000     0.000000000000     0          
O        O      0.940250000000     0.572550000000     0.500000000000     0          
O        O      0.500000000000     0.566850000000     0.582500000000     0          
O        O      0.923800000000     0.500000000000     0.570200000000     0          
O        O      0.902750000000     0.597950000000     0.591300000000     0          
O        O      0.918150000000     0.699000000000     0.410600000000     0          
O        O      0.832250000000     0.660800000000     0.448900000000     0          
O        O      0.848000000000     0.658200000000     0.347800000000     0          
O        O      0.500000000000     0.750000000000     0.557300000000     0          
O        O      0.915750000000     0.750000000000     0.500000000000     0          
O        O      0.833700000000     0.750000000000     0.500000000000     0          
O        O      0.750000000000     0.692050000000     0.500000000000     0          
O        O      0.823500000000     0.676500000000     0.750000000000     0          
O        O      0.813700000000     0.750000000000     0.679500000000     0          
O        O      0.750000000000     0.670350000000     0.679200000000     0          
T        Si     0.875300000000     0.653950000000     0.404000000000     0          
T        Si     0.941600000000     0.559250000000     0.561200000000     0          
T        Si     0.808800000000     0.688700000000     0.690300000000     0          
T        Si     0.937600000000     0.750000000000     0.558800000000     0          
T        Si     0.812400000000     0.691150000000     0.500000000000     0          
O        O      0.927450000000     0.940250000000     0.000000000000     0          
O        O      0.933150000000     0.500000000000     0.082500000000     0          
O        O      0.500000000000     0.923800000000     0.070200000000     0          
O        O      0.902050000000     0.902750000000     0.091300000000     0          
O        O      0.801000000000     0.918150000000     0.910600000000     0          
O        O      0.839200000000     0.832250000000     0.948900000000     0          
O        O      0.841800000000     0.848000000000     0.847800000000     0          
O        O      0.750000000000     0.915750000000     0.000000000000     0          
O        O      0.750000000000     0.833700000000     0.000000000000     0          
O        O      0.807950000000     0.750000000000     0.000000000000     0          
O        O      0.823500000000     0.823500000000     0.250000000000     0          
O        O      0.750000000000     0.813700000000     0.179500000000     0          
O        O      0.829650000000     0.750000000000     0.179200000000     0          
T        Si     0.846050000000     0.875300000000     0.904000000000     0          
T        Si     0.940750000000     0.941600000000     0.061200000000     0          
T        Si     0.811300000000     0.808800000000     0.190300000000     0          
T        Si     0.750000000000     0.937600000000     0.058800000000     0          
T        Si     0.808850000000     0.812400000000     0.000000000000     0          
O        O      0.559750000000     0.927450000000     0.500000000000     0          
O        O      0.500000000000     0.933150000000     0.582500000000     0          
O        O      0.576200000000     0.500000000000     0.570200000000     0          
O        O      0.597250000000     0.902050000000     0.591300000000     0          
O        O      0.581850000000     0.801000000000     0.410600000000     0          
O        O      0.667750000000     0.839200000000     0.448900000000     0          
O        O      0.652000000000     0.841800000000     0.347800000000     0          
O        O      0.584250000000     0.750000000000     0.500000000000     0          
O        O      0.666300000000     0.750000000000     0.500000000000     0          
O        O      0.750000000000     0.807950000000     0.500000000000     0          
O        O      0.676500000000     0.823500000000     0.750000000000     0          
O        O      0.686300000000     0.750000000000     0.679500000000     0          
O        O      0.750000000000     0.829650000000     0.679200000000     0          
T        Si     0.624700000000     0.846050000000     0.404000000000     0          
T        Si     0.558400000000     0.940750000000     0.561200000000     0          
T        Si     0.691200000000     0.811300000000     0.690300000000     0          
T        Si     0.562400000000     0.750000000000     0.558800000000     0          
T        Si     0.687600000000     0.808850000000     0.500000000000     0          
O        O      0.572550000000     0.940250000000     0.000000000000     0          
O        O      0.566850000000     0.500000000000     0.917500000000     0          
O        O      0.500000000000     0.923800000000     0.929800000000     0          
O        O      0.597950000000     0.902750000000     0.908700000000     0          
O        O      0.699000000000     0.918150000000     0.089400000000     0          
O        O      0.660800000000     0.832250000000     0.051100000000     0          
O        O      0.658200000000     0.848000000000     0.152200000000     0          
O        O      0.750000000000     0.500000000000     0.942700000000     0          
O        O      0.750000000000     0.813700000000     0.820500000000     0          
O        O      0.670350000000     0.750000000000     0.820800000000     0          
T        Si     0.653950000000     0.875300000000     0.096000000000     0          
T        Si     0.559250000000     0.941600000000     0.938800000000     0          
T        Si     0.688700000000     0.808800000000     0.809700000000     0          
T        Si     0.750000000000     0.937600000000     0.941200000000     0          
T        Si     0.691150000000     0.812400000000     0.000000000000     0          
O        O      0.559750000000     0.572550000000     0.500000000000     0          
O        O      0.500000000000     0.566850000000     0.417500000000     0          
O        O      0.576200000000     0.500000000000     0.429800000000     0          
O        O      0.597250000000     0.597950000000     0.408700000000     0          
O        O      0.581850000000     0.699000000000     0.589400000000     0          
O        O      0.667750000000     0.660800000000     0.551100000000     0          
O        O      0.652000000000     0.658200000000     0.652200000000     0          
O        O      0.500000000000     0.750000000000     0.442700000000     0          
O        O      0.686300000000     0.750000000000     0.320500000000     0          
O        O      0.750000000000     0.670350000000     0.320800000000     0          
T        Si     0.624700000000     0.653950000000     0.596000000000     0          
T        Si     0.558400000000     0.559250000000     0.438800000000     0          
T        Si     0.691200000000     0.688700000000     0.309700000000     0          
T        Si     0.562400000000     0.750000000000     0.441200000000     0          
T        Si     0.687600000000     0.691150000000     0.500000000000     0          
O        O      0.927450000000     0.559750000000     0.000000000000     0          
O        O      0.933150000000     0.500000000000     0.917500000000     0          
O        O      0.500000000000     0.576200000000     0.929800000000     0          
O        O      0.902050000000     0.597250000000     0.908700000000     0          
O        O      0.801000000000     0.581850000000     0.089400000000     0          
O        O      0.839200000000     0.667750000000     0.051100000000     0          
O        O      0.841800000000     0.652000000000     0.152200000000     0          
O        O      0.750000000000     0.686300000000     0.820500000000     0          
O        O      0.829650000000     0.750000000000     0.820800000000     0          
T        Si     0.846050000000     0.624700000000     0.096000000000     0          
T        Si     0.940750000000     0.558400000000     0.938800000000     0          
T        Si     0.811300000000     0.691200000000     0.809700000000     0          
T        Si     0.750000000000     0.562400000000     0.941200000000     0          
T        Si     0.808850000000     0.687600000000     0.000000000000     0          
O        O      0.940250000000     0.927450000000     0.500000000000     0          
O        O      0.500000000000     0.933150000000     0.417500000000     0          
O        O      0.923800000000     0.500000000000     0.429800000000     0          
O        O      0.902750000000     0.902050000000     0.408700000000     0          
O        O      0.918150000000     0.801000000000     0.589400000000     0          
O        O      0.832250000000     0.839200000000     0.551100000000     0          
O        O      0.848000000000     0.841800000000     0.652200000000     0          
O        O      0.813700000000     0.750000000000     0.320500000000     0          
O        O      0.750000000000     0.829650000000     0.320800000000     0          
T        Si     0.875300000000     0.846050000000     0.596000000000     0          
T        Si     0.941600000000     0.940750000000     0.438800000000     0          
T        Si     0.808800000000     0.811300000000     0.309700000000     0          
T        Si     0.937600000000     0.750000000000     0.441200000000     0          
T        Si     0.812400000000     0.808850000000     0.500000000000     0          
O        O      0.902050000000     0.902750000000     0.908700000000     0          
O        O      0.801000000000     0.918150000000     0.089400000000     0          
O        O      0.839200000000     0.832250000000     0.051100000000     0          
O        O      0.841800000000     0.848000000000     0.152200000000     0          
O        O      0.823500000000     0.823500000000     0.750000000000     0          
T        Si     0.846050000000     0.875300000000     0.096000000000     0          
T        Si     0.940750000000     0.941600000000     0.938800000000     0          
T        Si     0.811300000000     0.808800000000     0.809700000000     0          
O        O      0.597250000000     0.902050000000     0.408700000000     0          
O        O      0.581850000000     0.801000000000     0.589400000000     0          
O        O      0.667750000000     0.839200000000     0.551100000000     0          
O        O      0.652000000000     0.841800000000     0.652200000000     0          
O        O      0.676500000000     0.823500000000     0.250000000000     0          
T        Si     0.624700000000     0.846050000000     0.596000000000     0          
T        Si     0.558400000000     0.940750000000     0.438800000000     0          
T        Si     0.691200000000     0.811300000000     0.309700000000     0          
O        O      0.597950000000     0.597250000000     0.908700000000     0          
O        O      0.699000000000     0.581850000000     0.089400000000     0          
O        O      0.660800000000     0.667750000000     0.051100000000     0          
O        O      0.658200000000     0.652000000000     0.152200000000     0          
O        O      0.676500000000     0.676500000000     0.750000000000     0          
T        Si     0.653950000000     0.624700000000     0.096000000000     0          
T        Si     0.559250000000     0.558400000000     0.938800000000     0          
T        Si     0.688700000000     0.691200000000     0.809700000000     0          
O        O      0.902750000000     0.597950000000     0.408700000000     0          
O        O      0.918150000000     0.699000000000     0.589400000000     0          
O        O      0.832250000000     0.660800000000     0.551100000000     0          
O        O      0.848000000000     0.658200000000     0.652200000000     0          
O        O      0.823500000000     0.676500000000     0.250000000000     0          
T        Si     0.875300000000     0.653950000000     0.596000000000     0          
T        Si     0.941600000000     0.559250000000     0.438800000000     0          
T        Si     0.808800000000     0.688700000000     0.309700000000     0          
O        O      0.902050000000     0.597250000000     0.091300000000     0          
O        O      0.801000000000     0.581850000000     0.910600000000     0          
O        O      0.839200000000     0.667750000000     0.948900000000     0          
O        O      0.841800000000     0.652000000000     0.847800000000     0          
T        Si     0.846050000000     0.624700000000     0.904000000000     0          
T        Si     0.940750000000     0.558400000000     0.061200000000     0          
T        Si     0.811300000000     0.691200000000     0.190300000000     0          
O        O      0.902750000000     0.902050000000     0.591300000000     0          
O        O      0.918150000000     0.801000000000     0.410600000000     0          
O        O      0.832250000000     0.839200000000     0.448900000000     0          
O        O      0.848000000000     0.841800000000     0.347800000000     0          
T        Si     0.875300000000     0.846050000000     0.404000000000     0          
T        Si     0.941600000000     0.940750000000     0.561200000000     0          
T        Si     0.808800000000     0.811300000000     0.690300000000     0          
O        O      0.597950000000     0.902750000000     0.091300000000     0          
O        O      0.699000000000     0.918150000000     0.910600000000     0          
O        O      0.660800000000     0.832250000000     0.948900000000     0          
O        O      0.658200000000     0.848000000000     0.847800000000     0          
T        Si     0.653950000000     0.875300000000     0.904000000000     0          
T        Si     0.559250000000     0.941600000000     0.061200000000     0          
T        Si     0.688700000000     0.808800000000     0.190300000000     0          
O        O      0.597250000000     0.597950000000     0.591300000000     0          
O        O      0.581850000000     0.699000000000     0.410600000000     0          
O        O      0.667750000000     0.660800000000     0.448900000000     0          
O        O      0.652000000000     0.658200000000     0.347800000000     0          
T        Si     0.624700000000     0.653950000000     0.404000000000     0          
T        Si     0.558400000000     0.559250000000     0.561200000000     0          
T        Si     0.691200000000     0.688700000000     0.690300000000     0          


