data_zeolite

_audit_creation_method RASPA-1.0
_audit_creation_date 2021-6-7
_audit_author_name ''

_cell_length_a    28.996
_cell_length_b    27.936
_cell_length_c    37.347
_cell_angle_alpha 90
_cell_angle_beta  104.91
_cell_angle_gamma 90
_cell_volume      29233.7

_symmetry_cell_setting          monoclinic
_symmetry_space_group_name_Hall 'P 1'
_symmetry_space_group_name_H-M  'P 1'
_symmetry_Int_Tables_number     1

_symmetry_equiv_pos_as_xyz 'x,y,z'

loop_
_atom_site_label
_atom_site_type_symbol
_atom_site_fract_x
_atom_site_fract_y
_atom_site_fract_z
_atom_site_charge
O        O      0.419400000000     0.339850000000     0.247033333333     0          
O        O      0.507600000000     0.314500000000     0.280500000000     0          
O        O      0.439400000000     0.250000000000     0.266266666667     0          
O        O      0.441400000000     0.315500000000     0.317133333333     0          
O        O      0.402300000000     0.340450000000     0.037066666667     0          
O        O      0.425200000000     0.250000000000     0.029666666667     0          
O        O      0.217300000000     0.000000000000     0.274800000000     0          
O        O      0.295700000000     0.453000000000     0.278500000000     0          
O        O      0.254600000000     0.000000000000     0.217066666667     0          
O        O      0.194100000000     0.202400000000     0.261766666667     0          
O        O      0.270800000000     0.250000000000     0.259200000000     0          
O        O      0.241800000000     0.250000000000     0.320266666667     0          
O        O      0.273600000000     0.250000000000     0.188800000000     0          
O        O      0.337900000000     0.203100000000     0.238700000000     0          
O        O      0.196700000000     0.202750000000     0.155666666667     0          
O        O      0.328800000000     0.362700000000     0.063966666667     0          
O        O      0.240100000000     0.384650000000     0.063400000000     0          
O        O      0.308500000000     0.391500000000     0.125033333333     0          
O        O      0.343400000000     0.368800000000     0.194566666667     0          
O        O      0.250000000000     0.375000000000     0.166666666667     0          
O        O      0.347900000000     0.383500000000     0.265033333333     0          
O        O      0.328100000000     0.387650000000     0.329366666667     0          
O        O      0.321200000000     0.297150000000     0.012133333333     0          
T        Si     0.452100000000     0.304950000000     0.277666666667     0          
T        Si     0.440100000000     0.304950000000     0.025900000000     0          
T        Si     0.295400000000     0.397700000000     0.080733333333     0          
T        Si     0.301000000000     0.397050000000     0.166066666667     0          
T        Si     0.307200000000     0.396900000000     0.285633333333     0          
T        Si     0.345300000000     0.347500000000     0.027566666667     0          
T        Si     0.362400000000     0.347850000000     0.235866666667     0          
T        Si     0.266000000000     0.000000000000     0.261566666667     0          
T        Si     0.224700000000     0.250000000000     0.275666666667     0          
T        Si     0.304600000000     0.250000000000     0.231200000000     0          
T        Si     0.227800000000     0.250000000000     0.153733333333     0          
T        Si     0.292100000000     0.250000000000     0.017866666667     0          
O        O      0.580600000000     0.339850000000     0.086300000000     0          
O        O      0.492400000000     0.314500000000     0.052833333333     0          
O        O      0.560600000000     0.250000000000     0.067066666667     0          
O        O      0.558600000000     0.315500000000     0.016200000000     0          
O        O      0.597700000000     0.340450000000     0.296266666667     0          
O        O      0.574800000000     0.250000000000     0.303666666667     0          
O        O      0.782700000000     0.000000000000     0.058533333333     0          
O        O      0.704300000000     0.453000000000     0.054833333333     0          
O        O      0.745400000000     0.000000000000     0.116266666667     0          
O        O      0.805900000000     0.202400000000     0.071566666667     0          
O        O      0.729200000000     0.250000000000     0.074133333333     0          
O        O      0.758200000000     0.250000000000     0.013066666667     0          
O        O      0.726400000000     0.250000000000     0.144533333333     0          
O        O      0.662100000000     0.203100000000     0.094633333333     0          
O        O      0.803300000000     0.202750000000     0.177666666667     0          
O        O      0.671200000000     0.362700000000     0.269366666667     0          
O        O      0.759900000000     0.384650000000     0.269933333333     0          
O        O      0.691500000000     0.391500000000     0.208300000000     0          
O        O      0.656600000000     0.368800000000     0.138766666667     0          
O        O      0.750000000000     0.375000000000     0.166666666667     0          
O        O      0.652100000000     0.383500000000     0.068300000000     0          
O        O      0.671900000000     0.387650000000     0.003966666667     0          
O        O      0.678800000000     0.297150000000     0.321200000000     0          
T        Si     0.547900000000     0.304950000000     0.055666666667     0          
T        Si     0.559900000000     0.304950000000     0.307433333333     0          
T        Si     0.704600000000     0.397700000000     0.252600000000     0          
T        Si     0.699000000000     0.397050000000     0.167266666667     0          
T        Si     0.692800000000     0.396900000000     0.047700000000     0          
T        Si     0.654700000000     0.347500000000     0.305766666667     0          
T        Si     0.637600000000     0.347850000000     0.097466666667     0          
T        Si     0.734000000000     0.000000000000     0.071766666667     0          
T        Si     0.775300000000     0.250000000000     0.057666666667     0          
T        Si     0.695400000000     0.250000000000     0.102133333333     0          
T        Si     0.772200000000     0.250000000000     0.179600000000     0          
T        Si     0.707900000000     0.250000000000     0.315466666667     0          
O        O      0.580600000000     0.160150000000     0.086300000000     0          
O        O      0.492400000000     0.185500000000     0.052833333333     0          
O        O      0.558600000000     0.184500000000     0.016200000000     0          
O        O      0.597700000000     0.159550000000     0.296266666667     0          
O        O      0.704300000000     0.047000000000     0.054833333333     0          
O        O      0.805900000000     0.297600000000     0.071566666667     0          
O        O      0.662100000000     0.296900000000     0.094633333333     0          
O        O      0.803300000000     0.297250000000     0.177666666667     0          
O        O      0.671200000000     0.137300000000     0.269366666667     0          
O        O      0.759900000000     0.115350000000     0.269933333333     0          
O        O      0.691500000000     0.108500000000     0.208300000000     0          
O        O      0.656600000000     0.131200000000     0.138766666667     0          
O        O      0.750000000000     0.125000000000     0.166666666667     0          
O        O      0.652100000000     0.116500000000     0.068300000000     0          
O        O      0.671900000000     0.112350000000     0.003966666667     0          
O        O      0.678800000000     0.202850000000     0.321200000000     0          
T        Si     0.547900000000     0.195050000000     0.055666666667     0          
T        Si     0.559900000000     0.195050000000     0.307433333333     0          
T        Si     0.704600000000     0.102300000000     0.252600000000     0          
T        Si     0.699000000000     0.102950000000     0.167266666667     0          
T        Si     0.692800000000     0.103100000000     0.047700000000     0          
T        Si     0.654700000000     0.152500000000     0.305766666667     0          
T        Si     0.637600000000     0.152150000000     0.097466666667     0          
O        O      0.419400000000     0.160150000000     0.247033333333     0          
O        O      0.507600000000     0.185500000000     0.280500000000     0          
O        O      0.441400000000     0.184500000000     0.317133333333     0          
O        O      0.402300000000     0.159550000000     0.037066666667     0          
O        O      0.295700000000     0.047000000000     0.278500000000     0          
O        O      0.194100000000     0.297600000000     0.261766666667     0          
O        O      0.337900000000     0.296900000000     0.238700000000     0          
O        O      0.196700000000     0.297250000000     0.155666666667     0          
O        O      0.328800000000     0.137300000000     0.063966666667     0          
O        O      0.240100000000     0.115350000000     0.063400000000     0          
O        O      0.308500000000     0.108500000000     0.125033333333     0          
O        O      0.343400000000     0.131200000000     0.194566666667     0          
O        O      0.250000000000     0.125000000000     0.166666666667     0          
O        O      0.347900000000     0.116500000000     0.265033333333     0          
O        O      0.328100000000     0.112350000000     0.329366666667     0          
O        O      0.321200000000     0.202850000000     0.012133333333     0          
T        Si     0.452100000000     0.195050000000     0.277666666667     0          
T        Si     0.440100000000     0.195050000000     0.025900000000     0          
T        Si     0.295400000000     0.102300000000     0.080733333333     0          
T        Si     0.301000000000     0.102950000000     0.166066666667     0          
T        Si     0.307200000000     0.103100000000     0.285633333333     0          
T        Si     0.345300000000     0.152500000000     0.027566666667     0          
T        Si     0.362400000000     0.152150000000     0.235866666667     0          
O        O      0.919400000000     0.089850000000     0.247033333333     0          
O        O      0.007600000000     0.064500000000     0.280500000000     0          
O        O      0.939400000000     0.000000000000     0.266266666667     0          
O        O      0.941400000000     0.065500000000     0.317133333333     0          
O        O      0.902300000000     0.090450000000     0.037066666667     0          
O        O      0.925200000000     0.000000000000     0.029666666667     0          
O        O      0.717300000000     0.250000000000     0.274800000000     0          
O        O      0.795700000000     0.203000000000     0.278500000000     0          
O        O      0.754600000000     0.250000000000     0.217066666667     0          
O        O      0.694100000000     0.452400000000     0.261766666667     0          
O        O      0.770800000000     0.000000000000     0.259200000000     0          
O        O      0.741800000000     0.000000000000     0.320266666667     0          
O        O      0.773600000000     0.000000000000     0.188800000000     0          
O        O      0.837900000000     0.453100000000     0.238700000000     0          
O        O      0.696700000000     0.452750000000     0.155666666667     0          
O        O      0.828800000000     0.112700000000     0.063966666667     0          
O        O      0.740100000000     0.134650000000     0.063400000000     0          
O        O      0.808500000000     0.141500000000     0.125033333333     0          
O        O      0.843400000000     0.118800000000     0.194566666667     0          
O        O      0.847900000000     0.133500000000     0.265033333333     0          
O        O      0.828100000000     0.137650000000     0.329366666667     0          
O        O      0.821200000000     0.047150000000     0.012133333333     0          
T        Si     0.952100000000     0.054950000000     0.277666666667     0          
T        Si     0.940100000000     0.054950000000     0.025900000000     0          
T        Si     0.795400000000     0.147700000000     0.080733333333     0          
T        Si     0.801000000000     0.147050000000     0.166066666667     0          
T        Si     0.807200000000     0.146900000000     0.285633333333     0          
T        Si     0.845300000000     0.097500000000     0.027566666667     0          
T        Si     0.862400000000     0.097850000000     0.235866666667     0          
T        Si     0.766000000000     0.250000000000     0.261566666667     0          
T        Si     0.724700000000     0.000000000000     0.275666666667     0          
T        Si     0.804600000000     0.000000000000     0.231200000000     0          
T        Si     0.727800000000     0.000000000000     0.153733333333     0          
T        Si     0.792100000000     0.000000000000     0.017866666667     0          
O        O      0.080600000000     0.089850000000     0.086300000000     0          
O        O      0.992400000000     0.064500000000     0.052833333333     0          
O        O      0.060600000000     0.000000000000     0.067066666667     0          
O        O      0.058600000000     0.065500000000     0.016200000000     0          
O        O      0.097700000000     0.090450000000     0.296266666667     0          
O        O      0.074800000000     0.000000000000     0.303666666667     0          
O        O      0.282700000000     0.250000000000     0.058533333333     0          
O        O      0.204300000000     0.203000000000     0.054833333333     0          
O        O      0.245400000000     0.250000000000     0.116266666667     0          
O        O      0.305900000000     0.452400000000     0.071566666667     0          
O        O      0.229200000000     0.000000000000     0.074133333333     0          
O        O      0.258200000000     0.000000000000     0.013066666667     0          
O        O      0.226400000000     0.000000000000     0.144533333333     0          
O        O      0.162100000000     0.453100000000     0.094633333333     0          
O        O      0.303300000000     0.452750000000     0.177666666667     0          
O        O      0.171200000000     0.112700000000     0.269366666667     0          
O        O      0.259900000000     0.134650000000     0.269933333333     0          
O        O      0.191500000000     0.141500000000     0.208300000000     0          
O        O      0.156600000000     0.118800000000     0.138766666667     0          
O        O      0.152100000000     0.133500000000     0.068300000000     0          
O        O      0.171900000000     0.137650000000     0.003966666667     0          
O        O      0.178800000000     0.047150000000     0.321200000000     0          
T        Si     0.047900000000     0.054950000000     0.055666666667     0          
T        Si     0.059900000000     0.054950000000     0.307433333333     0          
T        Si     0.204600000000     0.147700000000     0.252600000000     0          
T        Si     0.199000000000     0.147050000000     0.167266666667     0          
T        Si     0.192800000000     0.146900000000     0.047700000000     0          
T        Si     0.154700000000     0.097500000000     0.305766666667     0          
T        Si     0.137600000000     0.097850000000     0.097466666667     0          
T        Si     0.234000000000     0.250000000000     0.071766666667     0          
T        Si     0.275300000000     0.000000000000     0.057666666667     0          
T        Si     0.195400000000     0.000000000000     0.102133333333     0          
T        Si     0.272200000000     0.000000000000     0.179600000000     0          
T        Si     0.207900000000     0.000000000000     0.315466666667     0          
O        O      0.080600000000     0.410150000000     0.086300000000     0          
O        O      0.992400000000     0.435500000000     0.052833333333     0          
O        O      0.058600000000     0.434500000000     0.016200000000     0          
O        O      0.097700000000     0.409550000000     0.296266666667     0          
O        O      0.204300000000     0.297000000000     0.054833333333     0          
O        O      0.305900000000     0.047600000000     0.071566666667     0          
O        O      0.162100000000     0.046900000000     0.094633333333     0          
O        O      0.303300000000     0.047250000000     0.177666666667     0          
O        O      0.171200000000     0.387300000000     0.269366666667     0          
O        O      0.259900000000     0.365350000000     0.269933333333     0          
O        O      0.191500000000     0.358500000000     0.208300000000     0          
O        O      0.156600000000     0.381200000000     0.138766666667     0          
O        O      0.152100000000     0.366500000000     0.068300000000     0          
O        O      0.171900000000     0.362350000000     0.003966666667     0          
O        O      0.178800000000     0.452850000000     0.321200000000     0          
T        Si     0.047900000000     0.445050000000     0.055666666667     0          
T        Si     0.059900000000     0.445050000000     0.307433333333     0          
T        Si     0.204600000000     0.352300000000     0.252600000000     0          
T        Si     0.199000000000     0.352950000000     0.167266666667     0          
T        Si     0.192800000000     0.353100000000     0.047700000000     0          
T        Si     0.154700000000     0.402500000000     0.305766666667     0          
T        Si     0.137600000000     0.402150000000     0.097466666667     0          
O        O      0.919400000000     0.410150000000     0.247033333333     0          
O        O      0.007600000000     0.435500000000     0.280500000000     0          
O        O      0.941400000000     0.434500000000     0.317133333333     0          
O        O      0.902300000000     0.409550000000     0.037066666667     0          
O        O      0.795700000000     0.297000000000     0.278500000000     0          
O        O      0.694100000000     0.047600000000     0.261766666667     0          
O        O      0.837900000000     0.046900000000     0.238700000000     0          
O        O      0.696700000000     0.047250000000     0.155666666667     0          
O        O      0.828800000000     0.387300000000     0.063966666667     0          
O        O      0.740100000000     0.365350000000     0.063400000000     0          
O        O      0.808500000000     0.358500000000     0.125033333333     0          
O        O      0.843400000000     0.381200000000     0.194566666667     0          
O        O      0.847900000000     0.366500000000     0.265033333333     0          
O        O      0.828100000000     0.362350000000     0.329366666667     0          
O        O      0.821200000000     0.452850000000     0.012133333333     0          
T        Si     0.952100000000     0.445050000000     0.277666666667     0          
T        Si     0.940100000000     0.445050000000     0.025900000000     0          
T        Si     0.795400000000     0.352300000000     0.080733333333     0          
T        Si     0.801000000000     0.352950000000     0.166066666667     0          
T        Si     0.807200000000     0.353100000000     0.285633333333     0          
T        Si     0.845300000000     0.402500000000     0.027566666667     0          
T        Si     0.862400000000     0.402150000000     0.235866666667     0          
O        O      0.419400000000     0.339850000000     0.580366666667     0          
O        O      0.507600000000     0.314500000000     0.613833333333     0          
O        O      0.439400000000     0.250000000000     0.599600000000     0          
O        O      0.441400000000     0.315500000000     0.650466666667     0          
O        O      0.402300000000     0.340450000000     0.370400000000     0          
O        O      0.425200000000     0.250000000000     0.363000000000     0          
O        O      0.217300000000     0.000000000000     0.608133333333     0          
O        O      0.295700000000     0.453000000000     0.611833333333     0          
O        O      0.254600000000     0.000000000000     0.550400000000     0          
O        O      0.194100000000     0.202400000000     0.595100000000     0          
O        O      0.270800000000     0.250000000000     0.592533333333     0          
O        O      0.241800000000     0.250000000000     0.653600000000     0          
O        O      0.273600000000     0.250000000000     0.522133333333     0          
O        O      0.337900000000     0.203100000000     0.572033333333     0          
O        O      0.196700000000     0.202750000000     0.489000000000     0          
O        O      0.328800000000     0.362700000000     0.397300000000     0          
O        O      0.240100000000     0.384650000000     0.396733333333     0          
O        O      0.308500000000     0.391500000000     0.458366666667     0          
O        O      0.343400000000     0.368800000000     0.527900000000     0          
O        O      0.250000000000     0.375000000000     0.500000000000     0          
O        O      0.347900000000     0.383500000000     0.598366666667     0          
O        O      0.328100000000     0.387650000000     0.662700000000     0          
O        O      0.321200000000     0.297150000000     0.345466666667     0          
T        Si     0.452100000000     0.304950000000     0.611000000000     0          
T        Si     0.440100000000     0.304950000000     0.359233333333     0          
T        Si     0.295400000000     0.397700000000     0.414066666667     0          
T        Si     0.301000000000     0.397050000000     0.499400000000     0          
T        Si     0.307200000000     0.396900000000     0.618966666667     0          
T        Si     0.345300000000     0.347500000000     0.360900000000     0          
T        Si     0.362400000000     0.347850000000     0.569200000000     0          
T        Si     0.266000000000     0.000000000000     0.594900000000     0          
T        Si     0.224700000000     0.250000000000     0.609000000000     0          
T        Si     0.304600000000     0.250000000000     0.564533333333     0          
T        Si     0.227800000000     0.250000000000     0.487066666667     0          
T        Si     0.292100000000     0.250000000000     0.351200000000     0          
O        O      0.580600000000     0.339850000000     0.419633333333     0          
O        O      0.492400000000     0.314500000000     0.386166666667     0          
O        O      0.560600000000     0.250000000000     0.400400000000     0          
O        O      0.558600000000     0.315500000000     0.349533333333     0          
O        O      0.597700000000     0.340450000000     0.629600000000     0          
O        O      0.574800000000     0.250000000000     0.637000000000     0          
O        O      0.782700000000     0.000000000000     0.391866666667     0          
O        O      0.704300000000     0.453000000000     0.388166666667     0          
O        O      0.745400000000     0.000000000000     0.449600000000     0          
O        O      0.805900000000     0.202400000000     0.404900000000     0          
O        O      0.729200000000     0.250000000000     0.407466666667     0          
O        O      0.758200000000     0.250000000000     0.346400000000     0          
O        O      0.726400000000     0.250000000000     0.477866666667     0          
O        O      0.662100000000     0.203100000000     0.427966666667     0          
O        O      0.803300000000     0.202750000000     0.511000000000     0          
O        O      0.671200000000     0.362700000000     0.602700000000     0          
O        O      0.759900000000     0.384650000000     0.603266666667     0          
O        O      0.691500000000     0.391500000000     0.541633333333     0          
O        O      0.656600000000     0.368800000000     0.472100000000     0          
O        O      0.750000000000     0.375000000000     0.500000000000     0          
O        O      0.652100000000     0.383500000000     0.401633333333     0          
O        O      0.671900000000     0.387650000000     0.337300000000     0          
O        O      0.678800000000     0.297150000000     0.654533333333     0          
T        Si     0.547900000000     0.304950000000     0.389000000000     0          
T        Si     0.559900000000     0.304950000000     0.640766666667     0          
T        Si     0.704600000000     0.397700000000     0.585933333333     0          
T        Si     0.699000000000     0.397050000000     0.500600000000     0          
T        Si     0.692800000000     0.396900000000     0.381033333333     0          
T        Si     0.654700000000     0.347500000000     0.639100000000     0          
T        Si     0.637600000000     0.347850000000     0.430800000000     0          
T        Si     0.734000000000     0.000000000000     0.405100000000     0          
T        Si     0.775300000000     0.250000000000     0.391000000000     0          
T        Si     0.695400000000     0.250000000000     0.435466666667     0          
T        Si     0.772200000000     0.250000000000     0.512933333333     0          
T        Si     0.707900000000     0.250000000000     0.648800000000     0          
O        O      0.580600000000     0.160150000000     0.419633333333     0          
O        O      0.492400000000     0.185500000000     0.386166666667     0          
O        O      0.558600000000     0.184500000000     0.349533333333     0          
O        O      0.597700000000     0.159550000000     0.629600000000     0          
O        O      0.704300000000     0.047000000000     0.388166666667     0          
O        O      0.805900000000     0.297600000000     0.404900000000     0          
O        O      0.662100000000     0.296900000000     0.427966666667     0          
O        O      0.803300000000     0.297250000000     0.511000000000     0          
O        O      0.671200000000     0.137300000000     0.602700000000     0          
O        O      0.759900000000     0.115350000000     0.603266666667     0          
O        O      0.691500000000     0.108500000000     0.541633333333     0          
O        O      0.656600000000     0.131200000000     0.472100000000     0          
O        O      0.750000000000     0.125000000000     0.500000000000     0          
O        O      0.652100000000     0.116500000000     0.401633333333     0          
O        O      0.671900000000     0.112350000000     0.337300000000     0          
O        O      0.678800000000     0.202850000000     0.654533333333     0          
T        Si     0.547900000000     0.195050000000     0.389000000000     0          
T        Si     0.559900000000     0.195050000000     0.640766666667     0          
T        Si     0.704600000000     0.102300000000     0.585933333333     0          
T        Si     0.699000000000     0.102950000000     0.500600000000     0          
T        Si     0.692800000000     0.103100000000     0.381033333333     0          
T        Si     0.654700000000     0.152500000000     0.639100000000     0          
T        Si     0.637600000000     0.152150000000     0.430800000000     0          
O        O      0.419400000000     0.160150000000     0.580366666667     0          
O        O      0.507600000000     0.185500000000     0.613833333333     0          
O        O      0.441400000000     0.184500000000     0.650466666667     0          
O        O      0.402300000000     0.159550000000     0.370400000000     0          
O        O      0.295700000000     0.047000000000     0.611833333333     0          
O        O      0.194100000000     0.297600000000     0.595100000000     0          
O        O      0.337900000000     0.296900000000     0.572033333333     0          
O        O      0.196700000000     0.297250000000     0.489000000000     0          
O        O      0.328800000000     0.137300000000     0.397300000000     0          
O        O      0.240100000000     0.115350000000     0.396733333333     0          
O        O      0.308500000000     0.108500000000     0.458366666667     0          
O        O      0.343400000000     0.131200000000     0.527900000000     0          
O        O      0.250000000000     0.125000000000     0.500000000000     0          
O        O      0.347900000000     0.116500000000     0.598366666667     0          
O        O      0.328100000000     0.112350000000     0.662700000000     0          
O        O      0.321200000000     0.202850000000     0.345466666667     0          
T        Si     0.452100000000     0.195050000000     0.611000000000     0          
T        Si     0.440100000000     0.195050000000     0.359233333333     0          
T        Si     0.295400000000     0.102300000000     0.414066666667     0          
T        Si     0.301000000000     0.102950000000     0.499400000000     0          
T        Si     0.307200000000     0.103100000000     0.618966666667     0          
T        Si     0.345300000000     0.152500000000     0.360900000000     0          
T        Si     0.362400000000     0.152150000000     0.569200000000     0          
O        O      0.919400000000     0.089850000000     0.580366666667     0          
O        O      0.007600000000     0.064500000000     0.613833333333     0          
O        O      0.939400000000     0.000000000000     0.599600000000     0          
O        O      0.941400000000     0.065500000000     0.650466666667     0          
O        O      0.902300000000     0.090450000000     0.370400000000     0          
O        O      0.925200000000     0.000000000000     0.363000000000     0          
O        O      0.717300000000     0.250000000000     0.608133333333     0          
O        O      0.795700000000     0.203000000000     0.611833333333     0          
O        O      0.754600000000     0.250000000000     0.550400000000     0          
O        O      0.694100000000     0.452400000000     0.595100000000     0          
O        O      0.770800000000     0.000000000000     0.592533333333     0          
O        O      0.741800000000     0.000000000000     0.653600000000     0          
O        O      0.773600000000     0.000000000000     0.522133333333     0          
O        O      0.837900000000     0.453100000000     0.572033333333     0          
O        O      0.696700000000     0.452750000000     0.489000000000     0          
O        O      0.828800000000     0.112700000000     0.397300000000     0          
O        O      0.740100000000     0.134650000000     0.396733333333     0          
O        O      0.808500000000     0.141500000000     0.458366666667     0          
O        O      0.843400000000     0.118800000000     0.527900000000     0          
O        O      0.847900000000     0.133500000000     0.598366666667     0          
O        O      0.828100000000     0.137650000000     0.662700000000     0          
O        O      0.821200000000     0.047150000000     0.345466666667     0          
T        Si     0.952100000000     0.054950000000     0.611000000000     0          
T        Si     0.940100000000     0.054950000000     0.359233333333     0          
T        Si     0.795400000000     0.147700000000     0.414066666667     0          
T        Si     0.801000000000     0.147050000000     0.499400000000     0          
T        Si     0.807200000000     0.146900000000     0.618966666667     0          
T        Si     0.845300000000     0.097500000000     0.360900000000     0          
T        Si     0.862400000000     0.097850000000     0.569200000000     0          
T        Si     0.766000000000     0.250000000000     0.594900000000     0          
T        Si     0.724700000000     0.000000000000     0.609000000000     0          
T        Si     0.804600000000     0.000000000000     0.564533333333     0          
T        Si     0.727800000000     0.000000000000     0.487066666667     0          
T        Si     0.792100000000     0.000000000000     0.351200000000     0          
O        O      0.080600000000     0.089850000000     0.419633333333     0          
O        O      0.992400000000     0.064500000000     0.386166666667     0          
O        O      0.060600000000     0.000000000000     0.400400000000     0          
O        O      0.058600000000     0.065500000000     0.349533333333     0          
O        O      0.097700000000     0.090450000000     0.629600000000     0          
O        O      0.074800000000     0.000000000000     0.637000000000     0          
O        O      0.282700000000     0.250000000000     0.391866666667     0          
O        O      0.204300000000     0.203000000000     0.388166666667     0          
O        O      0.245400000000     0.250000000000     0.449600000000     0          
O        O      0.305900000000     0.452400000000     0.404900000000     0          
O        O      0.229200000000     0.000000000000     0.407466666667     0          
O        O      0.258200000000     0.000000000000     0.346400000000     0          
O        O      0.226400000000     0.000000000000     0.477866666667     0          
O        O      0.162100000000     0.453100000000     0.427966666667     0          
O        O      0.303300000000     0.452750000000     0.511000000000     0          
O        O      0.171200000000     0.112700000000     0.602700000000     0          
O        O      0.259900000000     0.134650000000     0.603266666667     0          
O        O      0.191500000000     0.141500000000     0.541633333333     0          
O        O      0.156600000000     0.118800000000     0.472100000000     0          
O        O      0.152100000000     0.133500000000     0.401633333333     0          
O        O      0.171900000000     0.137650000000     0.337300000000     0          
O        O      0.178800000000     0.047150000000     0.654533333333     0          
T        Si     0.047900000000     0.054950000000     0.389000000000     0          
T        Si     0.059900000000     0.054950000000     0.640766666667     0          
T        Si     0.204600000000     0.147700000000     0.585933333333     0          
T        Si     0.199000000000     0.147050000000     0.500600000000     0          
T        Si     0.192800000000     0.146900000000     0.381033333333     0          
T        Si     0.154700000000     0.097500000000     0.639100000000     0          
T        Si     0.137600000000     0.097850000000     0.430800000000     0          
T        Si     0.234000000000     0.250000000000     0.405100000000     0          
T        Si     0.275300000000     0.000000000000     0.391000000000     0          
T        Si     0.195400000000     0.000000000000     0.435466666667     0          
T        Si     0.272200000000     0.000000000000     0.512933333333     0          
T        Si     0.207900000000     0.000000000000     0.648800000000     0          
O        O      0.080600000000     0.410150000000     0.419633333333     0          
O        O      0.992400000000     0.435500000000     0.386166666667     0          
O        O      0.058600000000     0.434500000000     0.349533333333     0          
O        O      0.097700000000     0.409550000000     0.629600000000     0          
O        O      0.204300000000     0.297000000000     0.388166666667     0          
O        O      0.305900000000     0.047600000000     0.404900000000     0          
O        O      0.162100000000     0.046900000000     0.427966666667     0          
O        O      0.303300000000     0.047250000000     0.511000000000     0          
O        O      0.171200000000     0.387300000000     0.602700000000     0          
O        O      0.259900000000     0.365350000000     0.603266666667     0          
O        O      0.191500000000     0.358500000000     0.541633333333     0          
O        O      0.156600000000     0.381200000000     0.472100000000     0          
O        O      0.152100000000     0.366500000000     0.401633333333     0          
O        O      0.171900000000     0.362350000000     0.337300000000     0          
O        O      0.178800000000     0.452850000000     0.654533333333     0          
T        Si     0.047900000000     0.445050000000     0.389000000000     0          
T        Si     0.059900000000     0.445050000000     0.640766666667     0          
T        Si     0.204600000000     0.352300000000     0.585933333333     0          
T        Si     0.199000000000     0.352950000000     0.500600000000     0          
T        Si     0.192800000000     0.353100000000     0.381033333333     0          
T        Si     0.154700000000     0.402500000000     0.639100000000     0          
T        Si     0.137600000000     0.402150000000     0.430800000000     0          
O        O      0.919400000000     0.410150000000     0.580366666667     0          
O        O      0.007600000000     0.435500000000     0.613833333333     0          
O        O      0.941400000000     0.434500000000     0.650466666667     0          
O        O      0.902300000000     0.409550000000     0.370400000000     0          
O        O      0.795700000000     0.297000000000     0.611833333333     0          
O        O      0.694100000000     0.047600000000     0.595100000000     0          
O        O      0.837900000000     0.046900000000     0.572033333333     0          
O        O      0.696700000000     0.047250000000     0.489000000000     0          
O        O      0.828800000000     0.387300000000     0.397300000000     0          
O        O      0.740100000000     0.365350000000     0.396733333333     0          
O        O      0.808500000000     0.358500000000     0.458366666667     0          
O        O      0.843400000000     0.381200000000     0.527900000000     0          
O        O      0.847900000000     0.366500000000     0.598366666667     0          
O        O      0.828100000000     0.362350000000     0.662700000000     0          
O        O      0.821200000000     0.452850000000     0.345466666667     0          
T        Si     0.952100000000     0.445050000000     0.611000000000     0          
T        Si     0.940100000000     0.445050000000     0.359233333333     0          
T        Si     0.795400000000     0.352300000000     0.414066666667     0          
T        Si     0.801000000000     0.352950000000     0.499400000000     0          
T        Si     0.807200000000     0.353100000000     0.618966666667     0          
T        Si     0.845300000000     0.402500000000     0.360900000000     0          
T        Si     0.862400000000     0.402150000000     0.569200000000     0          
O        O      0.419400000000     0.339850000000     0.913700000000     0          
O        O      0.507600000000     0.314500000000     0.947166666667     0          
O        O      0.439400000000     0.250000000000     0.932933333333     0          
O        O      0.441400000000     0.315500000000     0.983800000000     0          
O        O      0.402300000000     0.340450000000     0.703733333333     0          
O        O      0.425200000000     0.250000000000     0.696333333333     0          
O        O      0.217300000000     0.000000000000     0.941466666667     0          
O        O      0.295700000000     0.453000000000     0.945166666667     0          
O        O      0.254600000000     0.000000000000     0.883733333333     0          
O        O      0.194100000000     0.202400000000     0.928433333333     0          
O        O      0.270800000000     0.250000000000     0.925866666667     0          
O        O      0.241800000000     0.250000000000     0.986933333333     0          
O        O      0.273600000000     0.250000000000     0.855466666667     0          
O        O      0.337900000000     0.203100000000     0.905366666667     0          
O        O      0.196700000000     0.202750000000     0.822333333333     0          
O        O      0.328800000000     0.362700000000     0.730633333333     0          
O        O      0.240100000000     0.384650000000     0.730066666667     0          
O        O      0.308500000000     0.391500000000     0.791700000000     0          
O        O      0.343400000000     0.368800000000     0.861233333333     0          
O        O      0.250000000000     0.375000000000     0.833333333333     0          
O        O      0.347900000000     0.383500000000     0.931700000000     0          
O        O      0.328100000000     0.387650000000     0.996033333333     0          
O        O      0.321200000000     0.297150000000     0.678800000000     0          
T        Si     0.452100000000     0.304950000000     0.944333333333     0          
T        Si     0.440100000000     0.304950000000     0.692566666667     0          
T        Si     0.295400000000     0.397700000000     0.747400000000     0          
T        Si     0.301000000000     0.397050000000     0.832733333333     0          
T        Si     0.307200000000     0.396900000000     0.952300000000     0          
T        Si     0.345300000000     0.347500000000     0.694233333333     0          
T        Si     0.362400000000     0.347850000000     0.902533333333     0          
T        Si     0.266000000000     0.000000000000     0.928233333333     0          
T        Si     0.224700000000     0.250000000000     0.942333333333     0          
T        Si     0.304600000000     0.250000000000     0.897866666667     0          
T        Si     0.227800000000     0.250000000000     0.820400000000     0          
T        Si     0.292100000000     0.250000000000     0.684533333333     0          
O        O      0.580600000000     0.339850000000     0.752966666667     0          
O        O      0.492400000000     0.314500000000     0.719500000000     0          
O        O      0.560600000000     0.250000000000     0.733733333333     0          
O        O      0.558600000000     0.315500000000     0.682866666667     0          
O        O      0.597700000000     0.340450000000     0.962933333333     0          
O        O      0.574800000000     0.250000000000     0.970333333333     0          
O        O      0.782700000000     0.000000000000     0.725200000000     0          
O        O      0.704300000000     0.453000000000     0.721500000000     0          
O        O      0.745400000000     0.000000000000     0.782933333333     0          
O        O      0.805900000000     0.202400000000     0.738233333333     0          
O        O      0.729200000000     0.250000000000     0.740800000000     0          
O        O      0.758200000000     0.250000000000     0.679733333333     0          
O        O      0.726400000000     0.250000000000     0.811200000000     0          
O        O      0.662100000000     0.203100000000     0.761300000000     0          
O        O      0.803300000000     0.202750000000     0.844333333333     0          
O        O      0.671200000000     0.362700000000     0.936033333333     0          
O        O      0.759900000000     0.384650000000     0.936600000000     0          
O        O      0.691500000000     0.391500000000     0.874966666667     0          
O        O      0.656600000000     0.368800000000     0.805433333333     0          
O        O      0.750000000000     0.375000000000     0.833333333333     0          
O        O      0.652100000000     0.383500000000     0.734966666667     0          
O        O      0.671900000000     0.387650000000     0.670633333333     0          
O        O      0.678800000000     0.297150000000     0.987866666667     0          
T        Si     0.547900000000     0.304950000000     0.722333333333     0          
T        Si     0.559900000000     0.304950000000     0.974100000000     0          
T        Si     0.704600000000     0.397700000000     0.919266666667     0          
T        Si     0.699000000000     0.397050000000     0.833933333333     0          
T        Si     0.692800000000     0.396900000000     0.714366666667     0          
T        Si     0.654700000000     0.347500000000     0.972433333333     0          
T        Si     0.637600000000     0.347850000000     0.764133333333     0          
T        Si     0.734000000000     0.000000000000     0.738433333333     0          
T        Si     0.775300000000     0.250000000000     0.724333333333     0          
T        Si     0.695400000000     0.250000000000     0.768800000000     0          
T        Si     0.772200000000     0.250000000000     0.846266666667     0          
T        Si     0.707900000000     0.250000000000     0.982133333333     0          
O        O      0.580600000000     0.160150000000     0.752966666667     0          
O        O      0.492400000000     0.185500000000     0.719500000000     0          
O        O      0.558600000000     0.184500000000     0.682866666667     0          
O        O      0.597700000000     0.159550000000     0.962933333333     0          
O        O      0.704300000000     0.047000000000     0.721500000000     0          
O        O      0.805900000000     0.297600000000     0.738233333333     0          
O        O      0.662100000000     0.296900000000     0.761300000000     0          
O        O      0.803300000000     0.297250000000     0.844333333333     0          
O        O      0.671200000000     0.137300000000     0.936033333333     0          
O        O      0.759900000000     0.115350000000     0.936600000000     0          
O        O      0.691500000000     0.108500000000     0.874966666667     0          
O        O      0.656600000000     0.131200000000     0.805433333333     0          
O        O      0.750000000000     0.125000000000     0.833333333333     0          
O        O      0.652100000000     0.116500000000     0.734966666667     0          
O        O      0.671900000000     0.112350000000     0.670633333333     0          
O        O      0.678800000000     0.202850000000     0.987866666667     0          
T        Si     0.547900000000     0.195050000000     0.722333333333     0          
T        Si     0.559900000000     0.195050000000     0.974100000000     0          
T        Si     0.704600000000     0.102300000000     0.919266666667     0          
T        Si     0.699000000000     0.102950000000     0.833933333333     0          
T        Si     0.692800000000     0.103100000000     0.714366666667     0          
T        Si     0.654700000000     0.152500000000     0.972433333333     0          
T        Si     0.637600000000     0.152150000000     0.764133333333     0          
O        O      0.419400000000     0.160150000000     0.913700000000     0          
O        O      0.507600000000     0.185500000000     0.947166666667     0          
O        O      0.441400000000     0.184500000000     0.983800000000     0          
O        O      0.402300000000     0.159550000000     0.703733333333     0          
O        O      0.295700000000     0.047000000000     0.945166666667     0          
O        O      0.194100000000     0.297600000000     0.928433333333     0          
O        O      0.337900000000     0.296900000000     0.905366666667     0          
O        O      0.196700000000     0.297250000000     0.822333333333     0          
O        O      0.328800000000     0.137300000000     0.730633333333     0          
O        O      0.240100000000     0.115350000000     0.730066666667     0          
O        O      0.308500000000     0.108500000000     0.791700000000     0          
O        O      0.343400000000     0.131200000000     0.861233333333     0          
O        O      0.250000000000     0.125000000000     0.833333333333     0          
O        O      0.347900000000     0.116500000000     0.931700000000     0          
O        O      0.328100000000     0.112350000000     0.996033333333     0          
O        O      0.321200000000     0.202850000000     0.678800000000     0          
T        Si     0.452100000000     0.195050000000     0.944333333333     0          
T        Si     0.440100000000     0.195050000000     0.692566666667     0          
T        Si     0.295400000000     0.102300000000     0.747400000000     0          
T        Si     0.301000000000     0.102950000000     0.832733333333     0          
T        Si     0.307200000000     0.103100000000     0.952300000000     0          
T        Si     0.345300000000     0.152500000000     0.694233333333     0          
T        Si     0.362400000000     0.152150000000     0.902533333333     0          
O        O      0.919400000000     0.089850000000     0.913700000000     0          
O        O      0.007600000000     0.064500000000     0.947166666667     0          
O        O      0.939400000000     0.000000000000     0.932933333333     0          
O        O      0.941400000000     0.065500000000     0.983800000000     0          
O        O      0.902300000000     0.090450000000     0.703733333333     0          
O        O      0.925200000000     0.000000000000     0.696333333333     0          
O        O      0.717300000000     0.250000000000     0.941466666667     0          
O        O      0.795700000000     0.203000000000     0.945166666667     0          
O        O      0.754600000000     0.250000000000     0.883733333333     0          
O        O      0.694100000000     0.452400000000     0.928433333333     0          
O        O      0.770800000000     0.000000000000     0.925866666667     0          
O        O      0.741800000000     0.000000000000     0.986933333333     0          
O        O      0.773600000000     0.000000000000     0.855466666667     0          
O        O      0.837900000000     0.453100000000     0.905366666667     0          
O        O      0.696700000000     0.452750000000     0.822333333333     0          
O        O      0.828800000000     0.112700000000     0.730633333333     0          
O        O      0.740100000000     0.134650000000     0.730066666667     0          
O        O      0.808500000000     0.141500000000     0.791700000000     0          
O        O      0.843400000000     0.118800000000     0.861233333333     0          
O        O      0.847900000000     0.133500000000     0.931700000000     0          
O        O      0.828100000000     0.137650000000     0.996033333333     0          
O        O      0.821200000000     0.047150000000     0.678800000000     0          
T        Si     0.952100000000     0.054950000000     0.944333333333     0          
T        Si     0.940100000000     0.054950000000     0.692566666667     0          
T        Si     0.795400000000     0.147700000000     0.747400000000     0          
T        Si     0.801000000000     0.147050000000     0.832733333333     0          
T        Si     0.807200000000     0.146900000000     0.952300000000     0          
T        Si     0.845300000000     0.097500000000     0.694233333333     0          
T        Si     0.862400000000     0.097850000000     0.902533333333     0          
T        Si     0.766000000000     0.250000000000     0.928233333333     0          
T        Si     0.724700000000     0.000000000000     0.942333333333     0          
T        Si     0.804600000000     0.000000000000     0.897866666667     0          
T        Si     0.727800000000     0.000000000000     0.820400000000     0          
T        Si     0.792100000000     0.000000000000     0.684533333333     0          
O        O      0.080600000000     0.089850000000     0.752966666667     0          
O        O      0.992400000000     0.064500000000     0.719500000000     0          
O        O      0.060600000000     0.000000000000     0.733733333333     0          
O        O      0.058600000000     0.065500000000     0.682866666667     0          
O        O      0.097700000000     0.090450000000     0.962933333333     0          
O        O      0.074800000000     0.000000000000     0.970333333333     0          
O        O      0.282700000000     0.250000000000     0.725200000000     0          
O        O      0.204300000000     0.203000000000     0.721500000000     0          
O        O      0.245400000000     0.250000000000     0.782933333333     0          
O        O      0.305900000000     0.452400000000     0.738233333333     0          
O        O      0.229200000000     0.000000000000     0.740800000000     0          
O        O      0.258200000000     0.000000000000     0.679733333333     0          
O        O      0.226400000000     0.000000000000     0.811200000000     0          
O        O      0.162100000000     0.453100000000     0.761300000000     0          
O        O      0.303300000000     0.452750000000     0.844333333333     0          
O        O      0.171200000000     0.112700000000     0.936033333333     0          
O        O      0.259900000000     0.134650000000     0.936600000000     0          
O        O      0.191500000000     0.141500000000     0.874966666667     0          
O        O      0.156600000000     0.118800000000     0.805433333333     0          
O        O      0.152100000000     0.133500000000     0.734966666667     0          
O        O      0.171900000000     0.137650000000     0.670633333333     0          
O        O      0.178800000000     0.047150000000     0.987866666667     0          
T        Si     0.047900000000     0.054950000000     0.722333333333     0          
T        Si     0.059900000000     0.054950000000     0.974100000000     0          
T        Si     0.204600000000     0.147700000000     0.919266666667     0          
T        Si     0.199000000000     0.147050000000     0.833933333333     0          
T        Si     0.192800000000     0.146900000000     0.714366666667     0          
T        Si     0.154700000000     0.097500000000     0.972433333333     0          
T        Si     0.137600000000     0.097850000000     0.764133333333     0          
T        Si     0.234000000000     0.250000000000     0.738433333333     0          
T        Si     0.275300000000     0.000000000000     0.724333333333     0          
T        Si     0.195400000000     0.000000000000     0.768800000000     0          
T        Si     0.272200000000     0.000000000000     0.846266666667     0          
T        Si     0.207900000000     0.000000000000     0.982133333333     0          
O        O      0.080600000000     0.410150000000     0.752966666667     0          
O        O      0.992400000000     0.435500000000     0.719500000000     0          
O        O      0.058600000000     0.434500000000     0.682866666667     0          
O        O      0.097700000000     0.409550000000     0.962933333333     0          
O        O      0.204300000000     0.297000000000     0.721500000000     0          
O        O      0.305900000000     0.047600000000     0.738233333333     0          
O        O      0.162100000000     0.046900000000     0.761300000000     0          
O        O      0.303300000000     0.047250000000     0.844333333333     0          
O        O      0.171200000000     0.387300000000     0.936033333333     0          
O        O      0.259900000000     0.365350000000     0.936600000000     0          
O        O      0.191500000000     0.358500000000     0.874966666667     0          
O        O      0.156600000000     0.381200000000     0.805433333333     0          
O        O      0.152100000000     0.366500000000     0.734966666667     0          
O        O      0.171900000000     0.362350000000     0.670633333333     0          
O        O      0.178800000000     0.452850000000     0.987866666667     0          
T        Si     0.047900000000     0.445050000000     0.722333333333     0          
T        Si     0.059900000000     0.445050000000     0.974100000000     0          
T        Si     0.204600000000     0.352300000000     0.919266666667     0          
T        Si     0.199000000000     0.352950000000     0.833933333333     0          
T        Si     0.192800000000     0.353100000000     0.714366666667     0          
T        Si     0.154700000000     0.402500000000     0.972433333333     0          
T        Si     0.137600000000     0.402150000000     0.764133333333     0          
O        O      0.919400000000     0.410150000000     0.913700000000     0          
O        O      0.007600000000     0.435500000000     0.947166666667     0          
O        O      0.941400000000     0.434500000000     0.983800000000     0          
O        O      0.902300000000     0.409550000000     0.703733333333     0          
O        O      0.795700000000     0.297000000000     0.945166666667     0          
O        O      0.694100000000     0.047600000000     0.928433333333     0          
O        O      0.837900000000     0.046900000000     0.905366666667     0          
O        O      0.696700000000     0.047250000000     0.822333333333     0          
O        O      0.828800000000     0.387300000000     0.730633333333     0          
O        O      0.740100000000     0.365350000000     0.730066666667     0          
O        O      0.808500000000     0.358500000000     0.791700000000     0          
O        O      0.843400000000     0.381200000000     0.861233333333     0          
O        O      0.847900000000     0.366500000000     0.931700000000     0          
O        O      0.828100000000     0.362350000000     0.996033333333     0          
O        O      0.821200000000     0.452850000000     0.678800000000     0          
T        Si     0.952100000000     0.445050000000     0.944333333333     0          
T        Si     0.940100000000     0.445050000000     0.692566666667     0          
T        Si     0.795400000000     0.352300000000     0.747400000000     0          
T        Si     0.801000000000     0.352950000000     0.832733333333     0          
T        Si     0.807200000000     0.353100000000     0.952300000000     0          
T        Si     0.845300000000     0.402500000000     0.694233333333     0          
T        Si     0.862400000000     0.402150000000     0.902533333333     0          
O        O      0.419400000000     0.839850000000     0.247033333333     0          
O        O      0.507600000000     0.814500000000     0.280500000000     0          
O        O      0.439400000000     0.750000000000     0.266266666667     0          
O        O      0.441400000000     0.815500000000     0.317133333333     0          
O        O      0.402300000000     0.840450000000     0.037066666667     0          
O        O      0.425200000000     0.750000000000     0.029666666667     0          
O        O      0.217300000000     0.500000000000     0.274800000000     0          
O        O      0.295700000000     0.953000000000     0.278500000000     0          
O        O      0.254600000000     0.500000000000     0.217066666667     0          
O        O      0.194100000000     0.702400000000     0.261766666667     0          
O        O      0.270800000000     0.750000000000     0.259200000000     0          
O        O      0.241800000000     0.750000000000     0.320266666667     0          
O        O      0.273600000000     0.750000000000     0.188800000000     0          
O        O      0.337900000000     0.703100000000     0.238700000000     0          
O        O      0.196700000000     0.702750000000     0.155666666667     0          
O        O      0.328800000000     0.862700000000     0.063966666667     0          
O        O      0.240100000000     0.884650000000     0.063400000000     0          
O        O      0.308500000000     0.891500000000     0.125033333333     0          
O        O      0.343400000000     0.868800000000     0.194566666667     0          
O        O      0.250000000000     0.875000000000     0.166666666667     0          
O        O      0.347900000000     0.883500000000     0.265033333333     0          
O        O      0.328100000000     0.887650000000     0.329366666667     0          
O        O      0.321200000000     0.797150000000     0.012133333333     0          
T        Si     0.452100000000     0.804950000000     0.277666666667     0          
T        Si     0.440100000000     0.804950000000     0.025900000000     0          
T        Si     0.295400000000     0.897700000000     0.080733333333     0          
T        Si     0.301000000000     0.897050000000     0.166066666667     0          
T        Si     0.307200000000     0.896900000000     0.285633333333     0          
T        Si     0.345300000000     0.847500000000     0.027566666667     0          
T        Si     0.362400000000     0.847850000000     0.235866666667     0          
T        Si     0.266000000000     0.500000000000     0.261566666667     0          
T        Si     0.224700000000     0.750000000000     0.275666666667     0          
T        Si     0.304600000000     0.750000000000     0.231200000000     0          
T        Si     0.227800000000     0.750000000000     0.153733333333     0          
T        Si     0.292100000000     0.750000000000     0.017866666667     0          
O        O      0.580600000000     0.839850000000     0.086300000000     0          
O        O      0.492400000000     0.814500000000     0.052833333333     0          
O        O      0.560600000000     0.750000000000     0.067066666667     0          
O        O      0.558600000000     0.815500000000     0.016200000000     0          
O        O      0.597700000000     0.840450000000     0.296266666667     0          
O        O      0.574800000000     0.750000000000     0.303666666667     0          
O        O      0.782700000000     0.500000000000     0.058533333333     0          
O        O      0.704300000000     0.953000000000     0.054833333333     0          
O        O      0.745400000000     0.500000000000     0.116266666667     0          
O        O      0.805900000000     0.702400000000     0.071566666667     0          
O        O      0.729200000000     0.750000000000     0.074133333333     0          
O        O      0.758200000000     0.750000000000     0.013066666667     0          
O        O      0.726400000000     0.750000000000     0.144533333333     0          
O        O      0.662100000000     0.703100000000     0.094633333333     0          
O        O      0.803300000000     0.702750000000     0.177666666667     0          
O        O      0.671200000000     0.862700000000     0.269366666667     0          
O        O      0.759900000000     0.884650000000     0.269933333333     0          
O        O      0.691500000000     0.891500000000     0.208300000000     0          
O        O      0.656600000000     0.868800000000     0.138766666667     0          
O        O      0.750000000000     0.875000000000     0.166666666667     0          
O        O      0.652100000000     0.883500000000     0.068300000000     0          
O        O      0.671900000000     0.887650000000     0.003966666667     0          
O        O      0.678800000000     0.797150000000     0.321200000000     0          
T        Si     0.547900000000     0.804950000000     0.055666666667     0          
T        Si     0.559900000000     0.804950000000     0.307433333333     0          
T        Si     0.704600000000     0.897700000000     0.252600000000     0          
T        Si     0.699000000000     0.897050000000     0.167266666667     0          
T        Si     0.692800000000     0.896900000000     0.047700000000     0          
T        Si     0.654700000000     0.847500000000     0.305766666667     0          
T        Si     0.637600000000     0.847850000000     0.097466666667     0          
T        Si     0.734000000000     0.500000000000     0.071766666667     0          
T        Si     0.775300000000     0.750000000000     0.057666666667     0          
T        Si     0.695400000000     0.750000000000     0.102133333333     0          
T        Si     0.772200000000     0.750000000000     0.179600000000     0          
T        Si     0.707900000000     0.750000000000     0.315466666667     0          
O        O      0.580600000000     0.660150000000     0.086300000000     0          
O        O      0.492400000000     0.685500000000     0.052833333333     0          
O        O      0.558600000000     0.684500000000     0.016200000000     0          
O        O      0.597700000000     0.659550000000     0.296266666667     0          
O        O      0.704300000000     0.547000000000     0.054833333333     0          
O        O      0.805900000000     0.797600000000     0.071566666667     0          
O        O      0.662100000000     0.796900000000     0.094633333333     0          
O        O      0.803300000000     0.797250000000     0.177666666667     0          
O        O      0.671200000000     0.637300000000     0.269366666667     0          
O        O      0.759900000000     0.615350000000     0.269933333333     0          
O        O      0.691500000000     0.608500000000     0.208300000000     0          
O        O      0.656600000000     0.631200000000     0.138766666667     0          
O        O      0.750000000000     0.625000000000     0.166666666667     0          
O        O      0.652100000000     0.616500000000     0.068300000000     0          
O        O      0.671900000000     0.612350000000     0.003966666667     0          
O        O      0.678800000000     0.702850000000     0.321200000000     0          
T        Si     0.547900000000     0.695050000000     0.055666666667     0          
T        Si     0.559900000000     0.695050000000     0.307433333333     0          
T        Si     0.704600000000     0.602300000000     0.252600000000     0          
T        Si     0.699000000000     0.602950000000     0.167266666667     0          
T        Si     0.692800000000     0.603100000000     0.047700000000     0          
T        Si     0.654700000000     0.652500000000     0.305766666667     0          
T        Si     0.637600000000     0.652150000000     0.097466666667     0          
O        O      0.419400000000     0.660150000000     0.247033333333     0          
O        O      0.507600000000     0.685500000000     0.280500000000     0          
O        O      0.441400000000     0.684500000000     0.317133333333     0          
O        O      0.402300000000     0.659550000000     0.037066666667     0          
O        O      0.295700000000     0.547000000000     0.278500000000     0          
O        O      0.194100000000     0.797600000000     0.261766666667     0          
O        O      0.337900000000     0.796900000000     0.238700000000     0          
O        O      0.196700000000     0.797250000000     0.155666666667     0          
O        O      0.328800000000     0.637300000000     0.063966666667     0          
O        O      0.240100000000     0.615350000000     0.063400000000     0          
O        O      0.308500000000     0.608500000000     0.125033333333     0          
O        O      0.343400000000     0.631200000000     0.194566666667     0          
O        O      0.250000000000     0.625000000000     0.166666666667     0          
O        O      0.347900000000     0.616500000000     0.265033333333     0          
O        O      0.328100000000     0.612350000000     0.329366666667     0          
O        O      0.321200000000     0.702850000000     0.012133333333     0          
T        Si     0.452100000000     0.695050000000     0.277666666667     0          
T        Si     0.440100000000     0.695050000000     0.025900000000     0          
T        Si     0.295400000000     0.602300000000     0.080733333333     0          
T        Si     0.301000000000     0.602950000000     0.166066666667     0          
T        Si     0.307200000000     0.603100000000     0.285633333333     0          
T        Si     0.345300000000     0.652500000000     0.027566666667     0          
T        Si     0.362400000000     0.652150000000     0.235866666667     0          
O        O      0.919400000000     0.589850000000     0.247033333333     0          
O        O      0.007600000000     0.564500000000     0.280500000000     0          
O        O      0.939400000000     0.500000000000     0.266266666667     0          
O        O      0.941400000000     0.565500000000     0.317133333333     0          
O        O      0.902300000000     0.590450000000     0.037066666667     0          
O        O      0.925200000000     0.500000000000     0.029666666667     0          
O        O      0.717300000000     0.750000000000     0.274800000000     0          
O        O      0.795700000000     0.703000000000     0.278500000000     0          
O        O      0.754600000000     0.750000000000     0.217066666667     0          
O        O      0.694100000000     0.952400000000     0.261766666667     0          
O        O      0.770800000000     0.500000000000     0.259200000000     0          
O        O      0.741800000000     0.500000000000     0.320266666667     0          
O        O      0.773600000000     0.500000000000     0.188800000000     0          
O        O      0.837900000000     0.953100000000     0.238700000000     0          
O        O      0.696700000000     0.952750000000     0.155666666667     0          
O        O      0.828800000000     0.612700000000     0.063966666667     0          
O        O      0.740100000000     0.634650000000     0.063400000000     0          
O        O      0.808500000000     0.641500000000     0.125033333333     0          
O        O      0.843400000000     0.618800000000     0.194566666667     0          
O        O      0.847900000000     0.633500000000     0.265033333333     0          
O        O      0.828100000000     0.637650000000     0.329366666667     0          
O        O      0.821200000000     0.547150000000     0.012133333333     0          
T        Si     0.952100000000     0.554950000000     0.277666666667     0          
T        Si     0.940100000000     0.554950000000     0.025900000000     0          
T        Si     0.795400000000     0.647700000000     0.080733333333     0          
T        Si     0.801000000000     0.647050000000     0.166066666667     0          
T        Si     0.807200000000     0.646900000000     0.285633333333     0          
T        Si     0.845300000000     0.597500000000     0.027566666667     0          
T        Si     0.862400000000     0.597850000000     0.235866666667     0          
T        Si     0.766000000000     0.750000000000     0.261566666667     0          
T        Si     0.724700000000     0.500000000000     0.275666666667     0          
T        Si     0.804600000000     0.500000000000     0.231200000000     0          
T        Si     0.727800000000     0.500000000000     0.153733333333     0          
T        Si     0.792100000000     0.500000000000     0.017866666667     0          
O        O      0.080600000000     0.589850000000     0.086300000000     0          
O        O      0.992400000000     0.564500000000     0.052833333333     0          
O        O      0.060600000000     0.500000000000     0.067066666667     0          
O        O      0.058600000000     0.565500000000     0.016200000000     0          
O        O      0.097700000000     0.590450000000     0.296266666667     0          
O        O      0.074800000000     0.500000000000     0.303666666667     0          
O        O      0.282700000000     0.750000000000     0.058533333333     0          
O        O      0.204300000000     0.703000000000     0.054833333333     0          
O        O      0.245400000000     0.750000000000     0.116266666667     0          
O        O      0.305900000000     0.952400000000     0.071566666667     0          
O        O      0.229200000000     0.500000000000     0.074133333333     0          
O        O      0.258200000000     0.500000000000     0.013066666667     0          
O        O      0.226400000000     0.500000000000     0.144533333333     0          
O        O      0.162100000000     0.953100000000     0.094633333333     0          
O        O      0.303300000000     0.952750000000     0.177666666667     0          
O        O      0.171200000000     0.612700000000     0.269366666667     0          
O        O      0.259900000000     0.634650000000     0.269933333333     0          
O        O      0.191500000000     0.641500000000     0.208300000000     0          
O        O      0.156600000000     0.618800000000     0.138766666667     0          
O        O      0.152100000000     0.633500000000     0.068300000000     0          
O        O      0.171900000000     0.637650000000     0.003966666667     0          
O        O      0.178800000000     0.547150000000     0.321200000000     0          
T        Si     0.047900000000     0.554950000000     0.055666666667     0          
T        Si     0.059900000000     0.554950000000     0.307433333333     0          
T        Si     0.204600000000     0.647700000000     0.252600000000     0          
T        Si     0.199000000000     0.647050000000     0.167266666667     0          
T        Si     0.192800000000     0.646900000000     0.047700000000     0          
T        Si     0.154700000000     0.597500000000     0.305766666667     0          
T        Si     0.137600000000     0.597850000000     0.097466666667     0          
T        Si     0.234000000000     0.750000000000     0.071766666667     0          
T        Si     0.275300000000     0.500000000000     0.057666666667     0          
T        Si     0.195400000000     0.500000000000     0.102133333333     0          
T        Si     0.272200000000     0.500000000000     0.179600000000     0          
T        Si     0.207900000000     0.500000000000     0.315466666667     0          
O        O      0.080600000000     0.910150000000     0.086300000000     0          
O        O      0.992400000000     0.935500000000     0.052833333333     0          
O        O      0.058600000000     0.934500000000     0.016200000000     0          
O        O      0.097700000000     0.909550000000     0.296266666667     0          
O        O      0.204300000000     0.797000000000     0.054833333333     0          
O        O      0.305900000000     0.547600000000     0.071566666667     0          
O        O      0.162100000000     0.546900000000     0.094633333333     0          
O        O      0.303300000000     0.547250000000     0.177666666667     0          
O        O      0.171200000000     0.887300000000     0.269366666667     0          
O        O      0.259900000000     0.865350000000     0.269933333333     0          
O        O      0.191500000000     0.858500000000     0.208300000000     0          
O        O      0.156600000000     0.881200000000     0.138766666667     0          
O        O      0.152100000000     0.866500000000     0.068300000000     0          
O        O      0.171900000000     0.862350000000     0.003966666667     0          
O        O      0.178800000000     0.952850000000     0.321200000000     0          
T        Si     0.047900000000     0.945050000000     0.055666666667     0          
T        Si     0.059900000000     0.945050000000     0.307433333333     0          
T        Si     0.204600000000     0.852300000000     0.252600000000     0          
T        Si     0.199000000000     0.852950000000     0.167266666667     0          
T        Si     0.192800000000     0.853100000000     0.047700000000     0          
T        Si     0.154700000000     0.902500000000     0.305766666667     0          
T        Si     0.137600000000     0.902150000000     0.097466666667     0          
O        O      0.919400000000     0.910150000000     0.247033333333     0          
O        O      0.007600000000     0.935500000000     0.280500000000     0          
O        O      0.941400000000     0.934500000000     0.317133333333     0          
O        O      0.902300000000     0.909550000000     0.037066666667     0          
O        O      0.795700000000     0.797000000000     0.278500000000     0          
O        O      0.694100000000     0.547600000000     0.261766666667     0          
O        O      0.837900000000     0.546900000000     0.238700000000     0          
O        O      0.696700000000     0.547250000000     0.155666666667     0          
O        O      0.828800000000     0.887300000000     0.063966666667     0          
O        O      0.740100000000     0.865350000000     0.063400000000     0          
O        O      0.808500000000     0.858500000000     0.125033333333     0          
O        O      0.843400000000     0.881200000000     0.194566666667     0          
O        O      0.847900000000     0.866500000000     0.265033333333     0          
O        O      0.828100000000     0.862350000000     0.329366666667     0          
O        O      0.821200000000     0.952850000000     0.012133333333     0          
T        Si     0.952100000000     0.945050000000     0.277666666667     0          
T        Si     0.940100000000     0.945050000000     0.025900000000     0          
T        Si     0.795400000000     0.852300000000     0.080733333333     0          
T        Si     0.801000000000     0.852950000000     0.166066666667     0          
T        Si     0.807200000000     0.853100000000     0.285633333333     0          
T        Si     0.845300000000     0.902500000000     0.027566666667     0          
T        Si     0.862400000000     0.902150000000     0.235866666667     0          
O        O      0.419400000000     0.839850000000     0.580366666667     0          
O        O      0.507600000000     0.814500000000     0.613833333333     0          
O        O      0.439400000000     0.750000000000     0.599600000000     0          
O        O      0.441400000000     0.815500000000     0.650466666667     0          
O        O      0.402300000000     0.840450000000     0.370400000000     0          
O        O      0.425200000000     0.750000000000     0.363000000000     0          
O        O      0.217300000000     0.500000000000     0.608133333333     0          
O        O      0.295700000000     0.953000000000     0.611833333333     0          
O        O      0.254600000000     0.500000000000     0.550400000000     0          
O        O      0.194100000000     0.702400000000     0.595100000000     0          
O        O      0.270800000000     0.750000000000     0.592533333333     0          
O        O      0.241800000000     0.750000000000     0.653600000000     0          
O        O      0.273600000000     0.750000000000     0.522133333333     0          
O        O      0.337900000000     0.703100000000     0.572033333333     0          
O        O      0.196700000000     0.702750000000     0.489000000000     0          
O        O      0.328800000000     0.862700000000     0.397300000000     0          
O        O      0.240100000000     0.884650000000     0.396733333333     0          
O        O      0.308500000000     0.891500000000     0.458366666667     0          
O        O      0.343400000000     0.868800000000     0.527900000000     0          
O        O      0.250000000000     0.875000000000     0.500000000000     0          
O        O      0.347900000000     0.883500000000     0.598366666667     0          
O        O      0.328100000000     0.887650000000     0.662700000000     0          
O        O      0.321200000000     0.797150000000     0.345466666667     0          
T        Si     0.452100000000     0.804950000000     0.611000000000     0          
T        Si     0.440100000000     0.804950000000     0.359233333333     0          
T        Si     0.295400000000     0.897700000000     0.414066666667     0          
T        Si     0.301000000000     0.897050000000     0.499400000000     0          
T        Si     0.307200000000     0.896900000000     0.618966666667     0          
T        Si     0.345300000000     0.847500000000     0.360900000000     0          
T        Si     0.362400000000     0.847850000000     0.569200000000     0          
T        Si     0.266000000000     0.500000000000     0.594900000000     0          
T        Si     0.224700000000     0.750000000000     0.609000000000     0          
T        Si     0.304600000000     0.750000000000     0.564533333333     0          
T        Si     0.227800000000     0.750000000000     0.487066666667     0          
T        Si     0.292100000000     0.750000000000     0.351200000000     0          
O        O      0.580600000000     0.839850000000     0.419633333333     0          
O        O      0.492400000000     0.814500000000     0.386166666667     0          
O        O      0.560600000000     0.750000000000     0.400400000000     0          
O        O      0.558600000000     0.815500000000     0.349533333333     0          
O        O      0.597700000000     0.840450000000     0.629600000000     0          
O        O      0.574800000000     0.750000000000     0.637000000000     0          
O        O      0.782700000000     0.500000000000     0.391866666667     0          
O        O      0.704300000000     0.953000000000     0.388166666667     0          
O        O      0.745400000000     0.500000000000     0.449600000000     0          
O        O      0.805900000000     0.702400000000     0.404900000000     0          
O        O      0.729200000000     0.750000000000     0.407466666667     0          
O        O      0.758200000000     0.750000000000     0.346400000000     0          
O        O      0.726400000000     0.750000000000     0.477866666667     0          
O        O      0.662100000000     0.703100000000     0.427966666667     0          
O        O      0.803300000000     0.702750000000     0.511000000000     0          
O        O      0.671200000000     0.862700000000     0.602700000000     0          
O        O      0.759900000000     0.884650000000     0.603266666667     0          
O        O      0.691500000000     0.891500000000     0.541633333333     0          
O        O      0.656600000000     0.868800000000     0.472100000000     0          
O        O      0.750000000000     0.875000000000     0.500000000000     0          
O        O      0.652100000000     0.883500000000     0.401633333333     0          
O        O      0.671900000000     0.887650000000     0.337300000000     0          
O        O      0.678800000000     0.797150000000     0.654533333333     0          
T        Si     0.547900000000     0.804950000000     0.389000000000     0          
T        Si     0.559900000000     0.804950000000     0.640766666667     0          
T        Si     0.704600000000     0.897700000000     0.585933333333     0          
T        Si     0.699000000000     0.897050000000     0.500600000000     0          
T        Si     0.692800000000     0.896900000000     0.381033333333     0          
T        Si     0.654700000000     0.847500000000     0.639100000000     0          
T        Si     0.637600000000     0.847850000000     0.430800000000     0          
T        Si     0.734000000000     0.500000000000     0.405100000000     0          
T        Si     0.775300000000     0.750000000000     0.391000000000     0          
T        Si     0.695400000000     0.750000000000     0.435466666667     0          
T        Si     0.772200000000     0.750000000000     0.512933333333     0          
T        Si     0.707900000000     0.750000000000     0.648800000000     0          
O        O      0.580600000000     0.660150000000     0.419633333333     0          
O        O      0.492400000000     0.685500000000     0.386166666667     0          
O        O      0.558600000000     0.684500000000     0.349533333333     0          
O        O      0.597700000000     0.659550000000     0.629600000000     0          
O        O      0.704300000000     0.547000000000     0.388166666667     0          
O        O      0.805900000000     0.797600000000     0.404900000000     0          
O        O      0.662100000000     0.796900000000     0.427966666667     0          
O        O      0.803300000000     0.797250000000     0.511000000000     0          
O        O      0.671200000000     0.637300000000     0.602700000000     0          
O        O      0.759900000000     0.615350000000     0.603266666667     0          
O        O      0.691500000000     0.608500000000     0.541633333333     0          
O        O      0.656600000000     0.631200000000     0.472100000000     0          
O        O      0.750000000000     0.625000000000     0.500000000000     0          
O        O      0.652100000000     0.616500000000     0.401633333333     0          
O        O      0.671900000000     0.612350000000     0.337300000000     0          
O        O      0.678800000000     0.702850000000     0.654533333333     0          
T        Si     0.547900000000     0.695050000000     0.389000000000     0          
T        Si     0.559900000000     0.695050000000     0.640766666667     0          
T        Si     0.704600000000     0.602300000000     0.585933333333     0          
T        Si     0.699000000000     0.602950000000     0.500600000000     0          
T        Si     0.692800000000     0.603100000000     0.381033333333     0          
T        Si     0.654700000000     0.652500000000     0.639100000000     0          
T        Si     0.637600000000     0.652150000000     0.430800000000     0          
O        O      0.419400000000     0.660150000000     0.580366666667     0          
O        O      0.507600000000     0.685500000000     0.613833333333     0          
O        O      0.441400000000     0.684500000000     0.650466666667     0          
O        O      0.402300000000     0.659550000000     0.370400000000     0          
O        O      0.295700000000     0.547000000000     0.611833333333     0          
O        O      0.194100000000     0.797600000000     0.595100000000     0          
O        O      0.337900000000     0.796900000000     0.572033333333     0          
O        O      0.196700000000     0.797250000000     0.489000000000     0          
O        O      0.328800000000     0.637300000000     0.397300000000     0          
O        O      0.240100000000     0.615350000000     0.396733333333     0          
O        O      0.308500000000     0.608500000000     0.458366666667     0          
O        O      0.343400000000     0.631200000000     0.527900000000     0          
O        O      0.250000000000     0.625000000000     0.500000000000     0          
O        O      0.347900000000     0.616500000000     0.598366666667     0          
O        O      0.328100000000     0.612350000000     0.662700000000     0          
O        O      0.321200000000     0.702850000000     0.345466666667     0          
T        Si     0.452100000000     0.695050000000     0.611000000000     0          
T        Si     0.440100000000     0.695050000000     0.359233333333     0          
T        Si     0.295400000000     0.602300000000     0.414066666667     0          
T        Si     0.301000000000     0.602950000000     0.499400000000     0          
T        Si     0.307200000000     0.603100000000     0.618966666667     0          
T        Si     0.345300000000     0.652500000000     0.360900000000     0          
T        Si     0.362400000000     0.652150000000     0.569200000000     0          
O        O      0.919400000000     0.589850000000     0.580366666667     0          
O        O      0.007600000000     0.564500000000     0.613833333333     0          
O        O      0.939400000000     0.500000000000     0.599600000000     0          
O        O      0.941400000000     0.565500000000     0.650466666667     0          
O        O      0.902300000000     0.590450000000     0.370400000000     0          
O        O      0.925200000000     0.500000000000     0.363000000000     0          
O        O      0.717300000000     0.750000000000     0.608133333333     0          
O        O      0.795700000000     0.703000000000     0.611833333333     0          
O        O      0.754600000000     0.750000000000     0.550400000000     0          
O        O      0.694100000000     0.952400000000     0.595100000000     0          
O        O      0.770800000000     0.500000000000     0.592533333333     0          
O        O      0.741800000000     0.500000000000     0.653600000000     0          
O        O      0.773600000000     0.500000000000     0.522133333333     0          
O        O      0.837900000000     0.953100000000     0.572033333333     0          
O        O      0.696700000000     0.952750000000     0.489000000000     0          
O        O      0.828800000000     0.612700000000     0.397300000000     0          
O        O      0.740100000000     0.634650000000     0.396733333333     0          
O        O      0.808500000000     0.641500000000     0.458366666667     0          
O        O      0.843400000000     0.618800000000     0.527900000000     0          
O        O      0.847900000000     0.633500000000     0.598366666667     0          
O        O      0.828100000000     0.637650000000     0.662700000000     0          
O        O      0.821200000000     0.547150000000     0.345466666667     0          
T        Si     0.952100000000     0.554950000000     0.611000000000     0          
T        Si     0.940100000000     0.554950000000     0.359233333333     0          
T        Si     0.795400000000     0.647700000000     0.414066666667     0          
T        Si     0.801000000000     0.647050000000     0.499400000000     0          
T        Si     0.807200000000     0.646900000000     0.618966666667     0          
T        Si     0.845300000000     0.597500000000     0.360900000000     0          
T        Si     0.862400000000     0.597850000000     0.569200000000     0          
T        Si     0.766000000000     0.750000000000     0.594900000000     0          
T        Si     0.724700000000     0.500000000000     0.609000000000     0          
T        Si     0.804600000000     0.500000000000     0.564533333333     0          
T        Si     0.727800000000     0.500000000000     0.487066666667     0          
T        Si     0.792100000000     0.500000000000     0.351200000000     0          
O        O      0.080600000000     0.589850000000     0.419633333333     0          
O        O      0.992400000000     0.564500000000     0.386166666667     0          
O        O      0.060600000000     0.500000000000     0.400400000000     0          
O        O      0.058600000000     0.565500000000     0.349533333333     0          
O        O      0.097700000000     0.590450000000     0.629600000000     0          
O        O      0.074800000000     0.500000000000     0.637000000000     0          
O        O      0.282700000000     0.750000000000     0.391866666667     0          
O        O      0.204300000000     0.703000000000     0.388166666667     0          
O        O      0.245400000000     0.750000000000     0.449600000000     0          
O        O      0.305900000000     0.952400000000     0.404900000000     0          
O        O      0.229200000000     0.500000000000     0.407466666667     0          
O        O      0.258200000000     0.500000000000     0.346400000000     0          
O        O      0.226400000000     0.500000000000     0.477866666667     0          
O        O      0.162100000000     0.953100000000     0.427966666667     0          
O        O      0.303300000000     0.952750000000     0.511000000000     0          
O        O      0.171200000000     0.612700000000     0.602700000000     0          
O        O      0.259900000000     0.634650000000     0.603266666667     0          
O        O      0.191500000000     0.641500000000     0.541633333333     0          
O        O      0.156600000000     0.618800000000     0.472100000000     0          
O        O      0.152100000000     0.633500000000     0.401633333333     0          
O        O      0.171900000000     0.637650000000     0.337300000000     0          
O        O      0.178800000000     0.547150000000     0.654533333333     0          
T        Si     0.047900000000     0.554950000000     0.389000000000     0          
T        Si     0.059900000000     0.554950000000     0.640766666667     0          
T        Si     0.204600000000     0.647700000000     0.585933333333     0          
T        Si     0.199000000000     0.647050000000     0.500600000000     0          
T        Si     0.192800000000     0.646900000000     0.381033333333     0          
T        Si     0.154700000000     0.597500000000     0.639100000000     0          
T        Si     0.137600000000     0.597850000000     0.430800000000     0          
T        Si     0.234000000000     0.750000000000     0.405100000000     0          
T        Si     0.275300000000     0.500000000000     0.391000000000     0          
T        Si     0.195400000000     0.500000000000     0.435466666667     0          
T        Si     0.272200000000     0.500000000000     0.512933333333     0          
T        Si     0.207900000000     0.500000000000     0.648800000000     0          
O        O      0.080600000000     0.910150000000     0.419633333333     0          
O        O      0.992400000000     0.935500000000     0.386166666667     0          
O        O      0.058600000000     0.934500000000     0.349533333333     0          
O        O      0.097700000000     0.909550000000     0.629600000000     0          
O        O      0.204300000000     0.797000000000     0.388166666667     0          
O        O      0.305900000000     0.547600000000     0.404900000000     0          
O        O      0.162100000000     0.546900000000     0.427966666667     0          
O        O      0.303300000000     0.547250000000     0.511000000000     0          
O        O      0.171200000000     0.887300000000     0.602700000000     0          
O        O      0.259900000000     0.865350000000     0.603266666667     0          
O        O      0.191500000000     0.858500000000     0.541633333333     0          
O        O      0.156600000000     0.881200000000     0.472100000000     0          
O        O      0.152100000000     0.866500000000     0.401633333333     0          
O        O      0.171900000000     0.862350000000     0.337300000000     0          
O        O      0.178800000000     0.952850000000     0.654533333333     0          
T        Si     0.047900000000     0.945050000000     0.389000000000     0          
T        Si     0.059900000000     0.945050000000     0.640766666667     0          
T        Si     0.204600000000     0.852300000000     0.585933333333     0          
T        Si     0.199000000000     0.852950000000     0.500600000000     0          
T        Si     0.192800000000     0.853100000000     0.381033333333     0          
T        Si     0.154700000000     0.902500000000     0.639100000000     0          
T        Si     0.137600000000     0.902150000000     0.430800000000     0          
O        O      0.919400000000     0.910150000000     0.580366666667     0          
O        O      0.007600000000     0.935500000000     0.613833333333     0          
O        O      0.941400000000     0.934500000000     0.650466666667     0          
O        O      0.902300000000     0.909550000000     0.370400000000     0          
O        O      0.795700000000     0.797000000000     0.611833333333     0          
O        O      0.694100000000     0.547600000000     0.595100000000     0          
O        O      0.837900000000     0.546900000000     0.572033333333     0          
O        O      0.696700000000     0.547250000000     0.489000000000     0          
O        O      0.828800000000     0.887300000000     0.397300000000     0          
O        O      0.740100000000     0.865350000000     0.396733333333     0          
O        O      0.808500000000     0.858500000000     0.458366666667     0          
O        O      0.843400000000     0.881200000000     0.527900000000     0          
O        O      0.847900000000     0.866500000000     0.598366666667     0          
O        O      0.828100000000     0.862350000000     0.662700000000     0          
O        O      0.821200000000     0.952850000000     0.345466666667     0          
T        Si     0.952100000000     0.945050000000     0.611000000000     0          
T        Si     0.940100000000     0.945050000000     0.359233333333     0          
T        Si     0.795400000000     0.852300000000     0.414066666667     0          
T        Si     0.801000000000     0.852950000000     0.499400000000     0          
T        Si     0.807200000000     0.853100000000     0.618966666667     0          
T        Si     0.845300000000     0.902500000000     0.360900000000     0          
T        Si     0.862400000000     0.902150000000     0.569200000000     0          
O        O      0.419400000000     0.839850000000     0.913700000000     0          
O        O      0.507600000000     0.814500000000     0.947166666667     0          
O        O      0.439400000000     0.750000000000     0.932933333333     0          
O        O      0.441400000000     0.815500000000     0.983800000000     0          
O        O      0.402300000000     0.840450000000     0.703733333333     0          
O        O      0.425200000000     0.750000000000     0.696333333333     0          
O        O      0.217300000000     0.500000000000     0.941466666667     0          
O        O      0.295700000000     0.953000000000     0.945166666667     0          
O        O      0.254600000000     0.500000000000     0.883733333333     0          
O        O      0.194100000000     0.702400000000     0.928433333333     0          
O        O      0.270800000000     0.750000000000     0.925866666667     0          
O        O      0.241800000000     0.750000000000     0.986933333333     0          
O        O      0.273600000000     0.750000000000     0.855466666667     0          
O        O      0.337900000000     0.703100000000     0.905366666667     0          
O        O      0.196700000000     0.702750000000     0.822333333333     0          
O        O      0.328800000000     0.862700000000     0.730633333333     0          
O        O      0.240100000000     0.884650000000     0.730066666667     0          
O        O      0.308500000000     0.891500000000     0.791700000000     0          
O        O      0.343400000000     0.868800000000     0.861233333333     0          
O        O      0.250000000000     0.875000000000     0.833333333333     0          
O        O      0.347900000000     0.883500000000     0.931700000000     0          
O        O      0.328100000000     0.887650000000     0.996033333333     0          
O        O      0.321200000000     0.797150000000     0.678800000000     0          
T        Si     0.452100000000     0.804950000000     0.944333333333     0          
T        Si     0.440100000000     0.804950000000     0.692566666667     0          
T        Si     0.295400000000     0.897700000000     0.747400000000     0          
T        Si     0.301000000000     0.897050000000     0.832733333333     0          
T        Si     0.307200000000     0.896900000000     0.952300000000     0          
T        Si     0.345300000000     0.847500000000     0.694233333333     0          
T        Si     0.362400000000     0.847850000000     0.902533333333     0          
T        Si     0.266000000000     0.500000000000     0.928233333333     0          
T        Si     0.224700000000     0.750000000000     0.942333333333     0          
T        Si     0.304600000000     0.750000000000     0.897866666667     0          
T        Si     0.227800000000     0.750000000000     0.820400000000     0          
T        Si     0.292100000000     0.750000000000     0.684533333333     0          
O        O      0.580600000000     0.839850000000     0.752966666667     0          
O        O      0.492400000000     0.814500000000     0.719500000000     0          
O        O      0.560600000000     0.750000000000     0.733733333333     0          
O        O      0.558600000000     0.815500000000     0.682866666667     0          
O        O      0.597700000000     0.840450000000     0.962933333333     0          
O        O      0.574800000000     0.750000000000     0.970333333333     0          
O        O      0.782700000000     0.500000000000     0.725200000000     0          
O        O      0.704300000000     0.953000000000     0.721500000000     0          
O        O      0.745400000000     0.500000000000     0.782933333333     0          
O        O      0.805900000000     0.702400000000     0.738233333333     0          
O        O      0.729200000000     0.750000000000     0.740800000000     0          
O        O      0.758200000000     0.750000000000     0.679733333333     0          
O        O      0.726400000000     0.750000000000     0.811200000000     0          
O        O      0.662100000000     0.703100000000     0.761300000000     0          
O        O      0.803300000000     0.702750000000     0.844333333333     0          
O        O      0.671200000000     0.862700000000     0.936033333333     0          
O        O      0.759900000000     0.884650000000     0.936600000000     0          
O        O      0.691500000000     0.891500000000     0.874966666667     0          
O        O      0.656600000000     0.868800000000     0.805433333333     0          
O        O      0.750000000000     0.875000000000     0.833333333333     0          
O        O      0.652100000000     0.883500000000     0.734966666667     0          
O        O      0.671900000000     0.887650000000     0.670633333333     0          
O        O      0.678800000000     0.797150000000     0.987866666667     0          
T        Si     0.547900000000     0.804950000000     0.722333333333     0          
T        Si     0.559900000000     0.804950000000     0.974100000000     0          
T        Si     0.704600000000     0.897700000000     0.919266666667     0          
T        Si     0.699000000000     0.897050000000     0.833933333333     0          
T        Si     0.692800000000     0.896900000000     0.714366666667     0          
T        Si     0.654700000000     0.847500000000     0.972433333333     0          
T        Si     0.637600000000     0.847850000000     0.764133333333     0          
T        Si     0.734000000000     0.500000000000     0.738433333333     0          
T        Si     0.775300000000     0.750000000000     0.724333333333     0          
T        Si     0.695400000000     0.750000000000     0.768800000000     0          
T        Si     0.772200000000     0.750000000000     0.846266666667     0          
T        Si     0.707900000000     0.750000000000     0.982133333333     0          
O        O      0.580600000000     0.660150000000     0.752966666667     0          
O        O      0.492400000000     0.685500000000     0.719500000000     0          
O        O      0.558600000000     0.684500000000     0.682866666667     0          
O        O      0.597700000000     0.659550000000     0.962933333333     0          
O        O      0.704300000000     0.547000000000     0.721500000000     0          
O        O      0.805900000000     0.797600000000     0.738233333333     0          
O        O      0.662100000000     0.796900000000     0.761300000000     0          
O        O      0.803300000000     0.797250000000     0.844333333333     0          
O        O      0.671200000000     0.637300000000     0.936033333333     0          
O        O      0.759900000000     0.615350000000     0.936600000000     0          
O        O      0.691500000000     0.608500000000     0.874966666667     0          
O        O      0.656600000000     0.631200000000     0.805433333333     0          
O        O      0.750000000000     0.625000000000     0.833333333333     0          
O        O      0.652100000000     0.616500000000     0.734966666667     0          
O        O      0.671900000000     0.612350000000     0.670633333333     0          
O        O      0.678800000000     0.702850000000     0.987866666667     0          
T        Si     0.547900000000     0.695050000000     0.722333333333     0          
T        Si     0.559900000000     0.695050000000     0.974100000000     0          
T        Si     0.704600000000     0.602300000000     0.919266666667     0          
T        Si     0.699000000000     0.602950000000     0.833933333333     0          
T        Si     0.692800000000     0.603100000000     0.714366666667     0          
T        Si     0.654700000000     0.652500000000     0.972433333333     0          
T        Si     0.637600000000     0.652150000000     0.764133333333     0          
O        O      0.419400000000     0.660150000000     0.913700000000     0          
O        O      0.507600000000     0.685500000000     0.947166666667     0          
O        O      0.441400000000     0.684500000000     0.983800000000     0          
O        O      0.402300000000     0.659550000000     0.703733333333     0          
O        O      0.295700000000     0.547000000000     0.945166666667     0          
O        O      0.194100000000     0.797600000000     0.928433333333     0          
O        O      0.337900000000     0.796900000000     0.905366666667     0          
O        O      0.196700000000     0.797250000000     0.822333333333     0          
O        O      0.328800000000     0.637300000000     0.730633333333     0          
O        O      0.240100000000     0.615350000000     0.730066666667     0          
O        O      0.308500000000     0.608500000000     0.791700000000     0          
O        O      0.343400000000     0.631200000000     0.861233333333     0          
O        O      0.250000000000     0.625000000000     0.833333333333     0          
O        O      0.347900000000     0.616500000000     0.931700000000     0          
O        O      0.328100000000     0.612350000000     0.996033333333     0          
O        O      0.321200000000     0.702850000000     0.678800000000     0          
T        Si     0.452100000000     0.695050000000     0.944333333333     0          
T        Si     0.440100000000     0.695050000000     0.692566666667     0          
T        Si     0.295400000000     0.602300000000     0.747400000000     0          
T        Si     0.301000000000     0.602950000000     0.832733333333     0          
T        Si     0.307200000000     0.603100000000     0.952300000000     0          
T        Si     0.345300000000     0.652500000000     0.694233333333     0          
T        Si     0.362400000000     0.652150000000     0.902533333333     0          
O        O      0.919400000000     0.589850000000     0.913700000000     0          
O        O      0.007600000000     0.564500000000     0.947166666667     0          
O        O      0.939400000000     0.500000000000     0.932933333333     0          
O        O      0.941400000000     0.565500000000     0.983800000000     0          
O        O      0.902300000000     0.590450000000     0.703733333333     0          
O        O      0.925200000000     0.500000000000     0.696333333333     0          
O        O      0.717300000000     0.750000000000     0.941466666667     0          
O        O      0.795700000000     0.703000000000     0.945166666667     0          
O        O      0.754600000000     0.750000000000     0.883733333333     0          
O        O      0.694100000000     0.952400000000     0.928433333333     0          
O        O      0.770800000000     0.500000000000     0.925866666667     0          
O        O      0.741800000000     0.500000000000     0.986933333333     0          
O        O      0.773600000000     0.500000000000     0.855466666667     0          
O        O      0.837900000000     0.953100000000     0.905366666667     0          
O        O      0.696700000000     0.952750000000     0.822333333333     0          
O        O      0.828800000000     0.612700000000     0.730633333333     0          
O        O      0.740100000000     0.634650000000     0.730066666667     0          
O        O      0.808500000000     0.641500000000     0.791700000000     0          
O        O      0.843400000000     0.618800000000     0.861233333333     0          
O        O      0.847900000000     0.633500000000     0.931700000000     0          
O        O      0.828100000000     0.637650000000     0.996033333333     0          
O        O      0.821200000000     0.547150000000     0.678800000000     0          
T        Si     0.952100000000     0.554950000000     0.944333333333     0          
T        Si     0.940100000000     0.554950000000     0.692566666667     0          
T        Si     0.795400000000     0.647700000000     0.747400000000     0          
T        Si     0.801000000000     0.647050000000     0.832733333333     0          
T        Si     0.807200000000     0.646900000000     0.952300000000     0          
T        Si     0.845300000000     0.597500000000     0.694233333333     0          
T        Si     0.862400000000     0.597850000000     0.902533333333     0          
T        Si     0.766000000000     0.750000000000     0.928233333333     0          
T        Si     0.724700000000     0.500000000000     0.942333333333     0          
T        Si     0.804600000000     0.500000000000     0.897866666667     0          
T        Si     0.727800000000     0.500000000000     0.820400000000     0          
T        Si     0.792100000000     0.500000000000     0.684533333333     0          
O        O      0.080600000000     0.589850000000     0.752966666667     0          
O        O      0.992400000000     0.564500000000     0.719500000000     0          
O        O      0.060600000000     0.500000000000     0.733733333333     0          
O        O      0.058600000000     0.565500000000     0.682866666667     0          
O        O      0.097700000000     0.590450000000     0.962933333333     0          
O        O      0.074800000000     0.500000000000     0.970333333333     0          
O        O      0.282700000000     0.750000000000     0.725200000000     0          
O        O      0.204300000000     0.703000000000     0.721500000000     0          
O        O      0.245400000000     0.750000000000     0.782933333333     0          
O        O      0.305900000000     0.952400000000     0.738233333333     0          
O        O      0.229200000000     0.500000000000     0.740800000000     0          
O        O      0.258200000000     0.500000000000     0.679733333333     0          
O        O      0.226400000000     0.500000000000     0.811200000000     0          
O        O      0.162100000000     0.953100000000     0.761300000000     0          
O        O      0.303300000000     0.952750000000     0.844333333333     0          
O        O      0.171200000000     0.612700000000     0.936033333333     0          
O        O      0.259900000000     0.634650000000     0.936600000000     0          
O        O      0.191500000000     0.641500000000     0.874966666667     0          
O        O      0.156600000000     0.618800000000     0.805433333333     0          
O        O      0.152100000000     0.633500000000     0.734966666667     0          
O        O      0.171900000000     0.637650000000     0.670633333333     0          
O        O      0.178800000000     0.547150000000     0.987866666667     0          
T        Si     0.047900000000     0.554950000000     0.722333333333     0          
T        Si     0.059900000000     0.554950000000     0.974100000000     0          
T        Si     0.204600000000     0.647700000000     0.919266666667     0          
T        Si     0.199000000000     0.647050000000     0.833933333333     0          
T        Si     0.192800000000     0.646900000000     0.714366666667     0          
T        Si     0.154700000000     0.597500000000     0.972433333333     0          
T        Si     0.137600000000     0.597850000000     0.764133333333     0          
T        Si     0.234000000000     0.750000000000     0.738433333333     0          
T        Si     0.275300000000     0.500000000000     0.724333333333     0          
T        Si     0.195400000000     0.500000000000     0.768800000000     0          
T        Si     0.272200000000     0.500000000000     0.846266666667     0          
T        Si     0.207900000000     0.500000000000     0.982133333333     0          
O        O      0.080600000000     0.910150000000     0.752966666667     0          
O        O      0.992400000000     0.935500000000     0.719500000000     0          
O        O      0.058600000000     0.934500000000     0.682866666667     0          
O        O      0.097700000000     0.909550000000     0.962933333333     0          
O        O      0.204300000000     0.797000000000     0.721500000000     0          
O        O      0.305900000000     0.547600000000     0.738233333333     0          
O        O      0.162100000000     0.546900000000     0.761300000000     0          
O        O      0.303300000000     0.547250000000     0.844333333333     0          
O        O      0.171200000000     0.887300000000     0.936033333333     0          
O        O      0.259900000000     0.865350000000     0.936600000000     0          
O        O      0.191500000000     0.858500000000     0.874966666667     0          
O        O      0.156600000000     0.881200000000     0.805433333333     0          
O        O      0.152100000000     0.866500000000     0.734966666667     0          
O        O      0.171900000000     0.862350000000     0.670633333333     0          
O        O      0.178800000000     0.952850000000     0.987866666667     0          
T        Si     0.047900000000     0.945050000000     0.722333333333     0          
T        Si     0.059900000000     0.945050000000     0.974100000000     0          
T        Si     0.204600000000     0.852300000000     0.919266666667     0          
T        Si     0.199000000000     0.852950000000     0.833933333333     0          
T        Si     0.192800000000     0.853100000000     0.714366666667     0          
T        Si     0.154700000000     0.902500000000     0.972433333333     0          
T        Si     0.137600000000     0.902150000000     0.764133333333     0          
O        O      0.919400000000     0.910150000000     0.913700000000     0          
O        O      0.007600000000     0.935500000000     0.947166666667     0          
O        O      0.941400000000     0.934500000000     0.983800000000     0          
O        O      0.902300000000     0.909550000000     0.703733333333     0          
O        O      0.795700000000     0.797000000000     0.945166666667     0          
O        O      0.694100000000     0.547600000000     0.928433333333     0          
O        O      0.837900000000     0.546900000000     0.905366666667     0          
O        O      0.696700000000     0.547250000000     0.822333333333     0          
O        O      0.828800000000     0.887300000000     0.730633333333     0          
O        O      0.740100000000     0.865350000000     0.730066666667     0          
O        O      0.808500000000     0.858500000000     0.791700000000     0          
O        O      0.843400000000     0.881200000000     0.861233333333     0          
O        O      0.847900000000     0.866500000000     0.931700000000     0          
O        O      0.828100000000     0.862350000000     0.996033333333     0          
O        O      0.821200000000     0.952850000000     0.678800000000     0          
T        Si     0.952100000000     0.945050000000     0.944333333333     0          
T        Si     0.940100000000     0.945050000000     0.692566666667     0          
T        Si     0.795400000000     0.852300000000     0.747400000000     0          
T        Si     0.801000000000     0.852950000000     0.832733333333     0          
T        Si     0.807200000000     0.853100000000     0.952300000000     0          
T        Si     0.845300000000     0.902500000000     0.694233333333     0          
T        Si     0.862400000000     0.902150000000     0.902533333333     0          


