data_zeolite

_audit_creation_method RASPA-1.0
_audit_creation_date 2021-6-7
_audit_author_name ''

_cell_length_a    28.71
_cell_length_b    28.664
_cell_length_c    27.24
_cell_angle_alpha 90
_cell_angle_beta  90
_cell_angle_gamma 90
_cell_volume      22417

_symmetry_cell_setting          orthorhombic
_symmetry_space_group_name_Hall 'P 1'
_symmetry_space_group_name_H-M  'P 1'
_symmetry_Int_Tables_number     1

_symmetry_equiv_pos_as_xyz 'x,y,z'

loop_
_atom_site_label
_atom_site_type_symbol
_atom_site_fract_x
_atom_site_fract_y
_atom_site_fract_z
_atom_site_charge
O        O      0.039700000000     0.079150000000     0.072266666667     0          
O        O      0.056100000000     0.000000000000     0.117600000000     0          
O        O      0.061700000000     0.079125000000     0.165800000000     0          
O        O      0.125000000000     0.058100000000     0.099300000000     0          
O        O      0.038300000000     0.125000000000     0.245933333333     0          
O        O      0.125000000000     0.125000000000     0.215800000000     0          
O        O      0.000000000000     0.125000000000     0.000000000000     0          
T        Si     0.070800000000     0.054050000000     0.113766666667     0          
T        Si     0.071450000000     0.125000000000     0.198300000000     0          
T        Si     0.010300000000     0.125000000000     0.057966666667     0          
O        O      0.210300000000     0.170850000000     0.072266666667     0          
O        O      0.193900000000     0.000000000000     0.117600000000     0          
O        O      0.188300000000     0.170875000000     0.165800000000     0          
O        O      0.125000000000     0.191900000000     0.099300000000     0          
O        O      0.211700000000     0.125000000000     0.245933333333     0          
O        O      0.250000000000     0.125000000000     0.000000000000     0          
T        Si     0.179200000000     0.195950000000     0.113766666667     0          
T        Si     0.178550000000     0.125000000000     0.198300000000     0          
T        Si     0.239700000000     0.125000000000     0.057966666667     0          
O        O      0.289700000000     0.170850000000     0.261066666667     0          
O        O      0.306100000000     0.000000000000     0.215733333333     0          
O        O      0.311700000000     0.170875000000     0.167533333333     0          
O        O      0.375000000000     0.191900000000     0.234033333333     0          
O        O      0.288300000000     0.125000000000     0.087400000000     0          
O        O      0.375000000000     0.125000000000     0.117533333333     0          
T        Si     0.320800000000     0.195950000000     0.219566666667     0          
T        Si     0.321450000000     0.125000000000     0.135033333333     0          
T        Si     0.260300000000     0.125000000000     0.275366666667     0          
O        O      0.460300000000     0.079150000000     0.261066666667     0          
O        O      0.443900000000     0.000000000000     0.215733333333     0          
O        O      0.438300000000     0.079125000000     0.167533333333     0          
O        O      0.375000000000     0.058100000000     0.234033333333     0          
O        O      0.461700000000     0.125000000000     0.087400000000     0          
T        Si     0.429200000000     0.054050000000     0.219566666667     0          
T        Si     0.428550000000     0.125000000000     0.135033333333     0          
T        Si     0.489700000000     0.125000000000     0.275366666667     0          
O        O      0.460300000000     0.170850000000     0.261066666667     0          
O        O      0.438300000000     0.170875000000     0.167533333333     0          
T        Si     0.429200000000     0.195950000000     0.219566666667     0          
O        O      0.289700000000     0.079150000000     0.261066666667     0          
O        O      0.311700000000     0.079125000000     0.167533333333     0          
T        Si     0.320800000000     0.054050000000     0.219566666667     0          
O        O      0.210300000000     0.079150000000     0.072266666667     0          
O        O      0.188300000000     0.079125000000     0.165800000000     0          
T        Si     0.179200000000     0.054050000000     0.113766666667     0          
O        O      0.039700000000     0.170850000000     0.072266666667     0          
O        O      0.061700000000     0.170875000000     0.165800000000     0          
T        Si     0.070800000000     0.195950000000     0.113766666667     0          
O        O      0.039700000000     0.079150000000     0.405600000000     0          
O        O      0.056100000000     0.000000000000     0.450933333333     0          
O        O      0.061700000000     0.079125000000     0.499133333333     0          
O        O      0.125000000000     0.058100000000     0.432633333333     0          
O        O      0.038300000000     0.125000000000     0.579266666667     0          
O        O      0.125000000000     0.125000000000     0.549133333333     0          
O        O      0.000000000000     0.125000000000     0.333333333333     0          
T        Si     0.070800000000     0.054050000000     0.447100000000     0          
T        Si     0.071450000000     0.125000000000     0.531633333333     0          
T        Si     0.010300000000     0.125000000000     0.391300000000     0          
O        O      0.210300000000     0.170850000000     0.405600000000     0          
O        O      0.193900000000     0.000000000000     0.450933333333     0          
O        O      0.188300000000     0.170875000000     0.499133333333     0          
O        O      0.125000000000     0.191900000000     0.432633333333     0          
O        O      0.211700000000     0.125000000000     0.579266666667     0          
O        O      0.250000000000     0.125000000000     0.333333333333     0          
T        Si     0.179200000000     0.195950000000     0.447100000000     0          
T        Si     0.178550000000     0.125000000000     0.531633333333     0          
T        Si     0.239700000000     0.125000000000     0.391300000000     0          
O        O      0.289700000000     0.170850000000     0.594400000000     0          
O        O      0.306100000000     0.000000000000     0.549066666667     0          
O        O      0.311700000000     0.170875000000     0.500866666667     0          
O        O      0.375000000000     0.191900000000     0.567366666667     0          
O        O      0.288300000000     0.125000000000     0.420733333333     0          
O        O      0.375000000000     0.125000000000     0.450866666667     0          
T        Si     0.320800000000     0.195950000000     0.552900000000     0          
T        Si     0.321450000000     0.125000000000     0.468366666667     0          
T        Si     0.260300000000     0.125000000000     0.608700000000     0          
O        O      0.460300000000     0.079150000000     0.594400000000     0          
O        O      0.443900000000     0.000000000000     0.549066666667     0          
O        O      0.438300000000     0.079125000000     0.500866666667     0          
O        O      0.375000000000     0.058100000000     0.567366666667     0          
O        O      0.461700000000     0.125000000000     0.420733333333     0          
T        Si     0.429200000000     0.054050000000     0.552900000000     0          
T        Si     0.428550000000     0.125000000000     0.468366666667     0          
T        Si     0.489700000000     0.125000000000     0.608700000000     0          
O        O      0.460300000000     0.170850000000     0.594400000000     0          
O        O      0.438300000000     0.170875000000     0.500866666667     0          
T        Si     0.429200000000     0.195950000000     0.552900000000     0          
O        O      0.289700000000     0.079150000000     0.594400000000     0          
O        O      0.311700000000     0.079125000000     0.500866666667     0          
T        Si     0.320800000000     0.054050000000     0.552900000000     0          
O        O      0.210300000000     0.079150000000     0.405600000000     0          
O        O      0.188300000000     0.079125000000     0.499133333333     0          
T        Si     0.179200000000     0.054050000000     0.447100000000     0          
O        O      0.039700000000     0.170850000000     0.405600000000     0          
O        O      0.061700000000     0.170875000000     0.499133333333     0          
T        Si     0.070800000000     0.195950000000     0.447100000000     0          
O        O      0.039700000000     0.079150000000     0.738933333333     0          
O        O      0.056100000000     0.000000000000     0.784266666667     0          
O        O      0.061700000000     0.079125000000     0.832466666667     0          
O        O      0.125000000000     0.058100000000     0.765966666667     0          
O        O      0.038300000000     0.125000000000     0.912600000000     0          
O        O      0.125000000000     0.125000000000     0.882466666667     0          
O        O      0.000000000000     0.125000000000     0.666666666667     0          
T        Si     0.070800000000     0.054050000000     0.780433333333     0          
T        Si     0.071450000000     0.125000000000     0.864966666667     0          
T        Si     0.010300000000     0.125000000000     0.724633333333     0          
O        O      0.210300000000     0.170850000000     0.738933333333     0          
O        O      0.193900000000     0.000000000000     0.784266666667     0          
O        O      0.188300000000     0.170875000000     0.832466666667     0          
O        O      0.125000000000     0.191900000000     0.765966666667     0          
O        O      0.211700000000     0.125000000000     0.912600000000     0          
O        O      0.250000000000     0.125000000000     0.666666666667     0          
T        Si     0.179200000000     0.195950000000     0.780433333333     0          
T        Si     0.178550000000     0.125000000000     0.864966666667     0          
T        Si     0.239700000000     0.125000000000     0.724633333333     0          
O        O      0.289700000000     0.170850000000     0.927733333333     0          
O        O      0.306100000000     0.000000000000     0.882400000000     0          
O        O      0.311700000000     0.170875000000     0.834200000000     0          
O        O      0.375000000000     0.191900000000     0.900700000000     0          
O        O      0.288300000000     0.125000000000     0.754066666667     0          
O        O      0.375000000000     0.125000000000     0.784200000000     0          
T        Si     0.320800000000     0.195950000000     0.886233333333     0          
T        Si     0.321450000000     0.125000000000     0.801700000000     0          
T        Si     0.260300000000     0.125000000000     0.942033333333     0          
O        O      0.460300000000     0.079150000000     0.927733333333     0          
O        O      0.443900000000     0.000000000000     0.882400000000     0          
O        O      0.438300000000     0.079125000000     0.834200000000     0          
O        O      0.375000000000     0.058100000000     0.900700000000     0          
O        O      0.461700000000     0.125000000000     0.754066666667     0          
T        Si     0.429200000000     0.054050000000     0.886233333333     0          
T        Si     0.428550000000     0.125000000000     0.801700000000     0          
T        Si     0.489700000000     0.125000000000     0.942033333333     0          
O        O      0.460300000000     0.170850000000     0.927733333333     0          
O        O      0.438300000000     0.170875000000     0.834200000000     0          
T        Si     0.429200000000     0.195950000000     0.886233333333     0          
O        O      0.289700000000     0.079150000000     0.927733333333     0          
O        O      0.311700000000     0.079125000000     0.834200000000     0          
T        Si     0.320800000000     0.054050000000     0.886233333333     0          
O        O      0.210300000000     0.079150000000     0.738933333333     0          
O        O      0.188300000000     0.079125000000     0.832466666667     0          
T        Si     0.179200000000     0.054050000000     0.780433333333     0          
O        O      0.039700000000     0.170850000000     0.738933333333     0          
O        O      0.061700000000     0.170875000000     0.832466666667     0          
T        Si     0.070800000000     0.195950000000     0.780433333333     0          
O        O      0.039700000000     0.329150000000     0.072266666667     0          
O        O      0.056100000000     0.250000000000     0.117600000000     0          
O        O      0.061700000000     0.329125000000     0.165800000000     0          
O        O      0.125000000000     0.308100000000     0.099300000000     0          
O        O      0.038300000000     0.375000000000     0.245933333333     0          
O        O      0.125000000000     0.375000000000     0.215800000000     0          
O        O      0.000000000000     0.375000000000     0.000000000000     0          
T        Si     0.070800000000     0.304050000000     0.113766666667     0          
T        Si     0.071450000000     0.375000000000     0.198300000000     0          
T        Si     0.010300000000     0.375000000000     0.057966666667     0          
O        O      0.210300000000     0.420850000000     0.072266666667     0          
O        O      0.193900000000     0.250000000000     0.117600000000     0          
O        O      0.188300000000     0.420875000000     0.165800000000     0          
O        O      0.125000000000     0.441900000000     0.099300000000     0          
O        O      0.211700000000     0.375000000000     0.245933333333     0          
O        O      0.250000000000     0.375000000000     0.000000000000     0          
T        Si     0.179200000000     0.445950000000     0.113766666667     0          
T        Si     0.178550000000     0.375000000000     0.198300000000     0          
T        Si     0.239700000000     0.375000000000     0.057966666667     0          
O        O      0.289700000000     0.420850000000     0.261066666667     0          
O        O      0.306100000000     0.250000000000     0.215733333333     0          
O        O      0.311700000000     0.420875000000     0.167533333333     0          
O        O      0.375000000000     0.441900000000     0.234033333333     0          
O        O      0.288300000000     0.375000000000     0.087400000000     0          
O        O      0.375000000000     0.375000000000     0.117533333333     0          
T        Si     0.320800000000     0.445950000000     0.219566666667     0          
T        Si     0.321450000000     0.375000000000     0.135033333333     0          
T        Si     0.260300000000     0.375000000000     0.275366666667     0          
O        O      0.460300000000     0.329150000000     0.261066666667     0          
O        O      0.443900000000     0.250000000000     0.215733333333     0          
O        O      0.438300000000     0.329125000000     0.167533333333     0          
O        O      0.375000000000     0.308100000000     0.234033333333     0          
O        O      0.461700000000     0.375000000000     0.087400000000     0          
T        Si     0.429200000000     0.304050000000     0.219566666667     0          
T        Si     0.428550000000     0.375000000000     0.135033333333     0          
T        Si     0.489700000000     0.375000000000     0.275366666667     0          
O        O      0.460300000000     0.420850000000     0.261066666667     0          
O        O      0.438300000000     0.420875000000     0.167533333333     0          
T        Si     0.429200000000     0.445950000000     0.219566666667     0          
O        O      0.289700000000     0.329150000000     0.261066666667     0          
O        O      0.311700000000     0.329125000000     0.167533333333     0          
T        Si     0.320800000000     0.304050000000     0.219566666667     0          
O        O      0.210300000000     0.329150000000     0.072266666667     0          
O        O      0.188300000000     0.329125000000     0.165800000000     0          
T        Si     0.179200000000     0.304050000000     0.113766666667     0          
O        O      0.039700000000     0.420850000000     0.072266666667     0          
O        O      0.061700000000     0.420875000000     0.165800000000     0          
T        Si     0.070800000000     0.445950000000     0.113766666667     0          
O        O      0.039700000000     0.329150000000     0.405600000000     0          
O        O      0.056100000000     0.250000000000     0.450933333333     0          
O        O      0.061700000000     0.329125000000     0.499133333333     0          
O        O      0.125000000000     0.308100000000     0.432633333333     0          
O        O      0.038300000000     0.375000000000     0.579266666667     0          
O        O      0.125000000000     0.375000000000     0.549133333333     0          
O        O      0.000000000000     0.375000000000     0.333333333333     0          
T        Si     0.070800000000     0.304050000000     0.447100000000     0          
T        Si     0.071450000000     0.375000000000     0.531633333333     0          
T        Si     0.010300000000     0.375000000000     0.391300000000     0          
O        O      0.210300000000     0.420850000000     0.405600000000     0          
O        O      0.193900000000     0.250000000000     0.450933333333     0          
O        O      0.188300000000     0.420875000000     0.499133333333     0          
O        O      0.125000000000     0.441900000000     0.432633333333     0          
O        O      0.211700000000     0.375000000000     0.579266666667     0          
O        O      0.250000000000     0.375000000000     0.333333333333     0          
T        Si     0.179200000000     0.445950000000     0.447100000000     0          
T        Si     0.178550000000     0.375000000000     0.531633333333     0          
T        Si     0.239700000000     0.375000000000     0.391300000000     0          
O        O      0.289700000000     0.420850000000     0.594400000000     0          
O        O      0.306100000000     0.250000000000     0.549066666667     0          
O        O      0.311700000000     0.420875000000     0.500866666667     0          
O        O      0.375000000000     0.441900000000     0.567366666667     0          
O        O      0.288300000000     0.375000000000     0.420733333333     0          
O        O      0.375000000000     0.375000000000     0.450866666667     0          
T        Si     0.320800000000     0.445950000000     0.552900000000     0          
T        Si     0.321450000000     0.375000000000     0.468366666667     0          
T        Si     0.260300000000     0.375000000000     0.608700000000     0          
O        O      0.460300000000     0.329150000000     0.594400000000     0          
O        O      0.443900000000     0.250000000000     0.549066666667     0          
O        O      0.438300000000     0.329125000000     0.500866666667     0          
O        O      0.375000000000     0.308100000000     0.567366666667     0          
O        O      0.461700000000     0.375000000000     0.420733333333     0          
T        Si     0.429200000000     0.304050000000     0.552900000000     0          
T        Si     0.428550000000     0.375000000000     0.468366666667     0          
T        Si     0.489700000000     0.375000000000     0.608700000000     0          
O        O      0.460300000000     0.420850000000     0.594400000000     0          
O        O      0.438300000000     0.420875000000     0.500866666667     0          
T        Si     0.429200000000     0.445950000000     0.552900000000     0          
O        O      0.289700000000     0.329150000000     0.594400000000     0          
O        O      0.311700000000     0.329125000000     0.500866666667     0          
T        Si     0.320800000000     0.304050000000     0.552900000000     0          
O        O      0.210300000000     0.329150000000     0.405600000000     0          
O        O      0.188300000000     0.329125000000     0.499133333333     0          
T        Si     0.179200000000     0.304050000000     0.447100000000     0          
O        O      0.039700000000     0.420850000000     0.405600000000     0          
O        O      0.061700000000     0.420875000000     0.499133333333     0          
T        Si     0.070800000000     0.445950000000     0.447100000000     0          
O        O      0.039700000000     0.329150000000     0.738933333333     0          
O        O      0.056100000000     0.250000000000     0.784266666667     0          
O        O      0.061700000000     0.329125000000     0.832466666667     0          
O        O      0.125000000000     0.308100000000     0.765966666667     0          
O        O      0.038300000000     0.375000000000     0.912600000000     0          
O        O      0.125000000000     0.375000000000     0.882466666667     0          
O        O      0.000000000000     0.375000000000     0.666666666667     0          
T        Si     0.070800000000     0.304050000000     0.780433333333     0          
T        Si     0.071450000000     0.375000000000     0.864966666667     0          
T        Si     0.010300000000     0.375000000000     0.724633333333     0          
O        O      0.210300000000     0.420850000000     0.738933333333     0          
O        O      0.193900000000     0.250000000000     0.784266666667     0          
O        O      0.188300000000     0.420875000000     0.832466666667     0          
O        O      0.125000000000     0.441900000000     0.765966666667     0          
O        O      0.211700000000     0.375000000000     0.912600000000     0          
O        O      0.250000000000     0.375000000000     0.666666666667     0          
T        Si     0.179200000000     0.445950000000     0.780433333333     0          
T        Si     0.178550000000     0.375000000000     0.864966666667     0          
T        Si     0.239700000000     0.375000000000     0.724633333333     0          
O        O      0.289700000000     0.420850000000     0.927733333333     0          
O        O      0.306100000000     0.250000000000     0.882400000000     0          
O        O      0.311700000000     0.420875000000     0.834200000000     0          
O        O      0.375000000000     0.441900000000     0.900700000000     0          
O        O      0.288300000000     0.375000000000     0.754066666667     0          
O        O      0.375000000000     0.375000000000     0.784200000000     0          
T        Si     0.320800000000     0.445950000000     0.886233333333     0          
T        Si     0.321450000000     0.375000000000     0.801700000000     0          
T        Si     0.260300000000     0.375000000000     0.942033333333     0          
O        O      0.460300000000     0.329150000000     0.927733333333     0          
O        O      0.443900000000     0.250000000000     0.882400000000     0          
O        O      0.438300000000     0.329125000000     0.834200000000     0          
O        O      0.375000000000     0.308100000000     0.900700000000     0          
O        O      0.461700000000     0.375000000000     0.754066666667     0          
T        Si     0.429200000000     0.304050000000     0.886233333333     0          
T        Si     0.428550000000     0.375000000000     0.801700000000     0          
T        Si     0.489700000000     0.375000000000     0.942033333333     0          
O        O      0.460300000000     0.420850000000     0.927733333333     0          
O        O      0.438300000000     0.420875000000     0.834200000000     0          
T        Si     0.429200000000     0.445950000000     0.886233333333     0          
O        O      0.289700000000     0.329150000000     0.927733333333     0          
O        O      0.311700000000     0.329125000000     0.834200000000     0          
T        Si     0.320800000000     0.304050000000     0.886233333333     0          
O        O      0.210300000000     0.329150000000     0.738933333333     0          
O        O      0.188300000000     0.329125000000     0.832466666667     0          
T        Si     0.179200000000     0.304050000000     0.780433333333     0          
O        O      0.039700000000     0.420850000000     0.738933333333     0          
O        O      0.061700000000     0.420875000000     0.832466666667     0          
T        Si     0.070800000000     0.445950000000     0.780433333333     0          
O        O      0.039700000000     0.579150000000     0.072266666667     0          
O        O      0.056100000000     0.500000000000     0.117600000000     0          
O        O      0.061700000000     0.579125000000     0.165800000000     0          
O        O      0.125000000000     0.558100000000     0.099300000000     0          
O        O      0.038300000000     0.625000000000     0.245933333333     0          
O        O      0.125000000000     0.625000000000     0.215800000000     0          
O        O      0.000000000000     0.625000000000     0.000000000000     0          
T        Si     0.070800000000     0.554050000000     0.113766666667     0          
T        Si     0.071450000000     0.625000000000     0.198300000000     0          
T        Si     0.010300000000     0.625000000000     0.057966666667     0          
O        O      0.210300000000     0.670850000000     0.072266666667     0          
O        O      0.193900000000     0.500000000000     0.117600000000     0          
O        O      0.188300000000     0.670875000000     0.165800000000     0          
O        O      0.125000000000     0.691900000000     0.099300000000     0          
O        O      0.211700000000     0.625000000000     0.245933333333     0          
O        O      0.250000000000     0.625000000000     0.000000000000     0          
T        Si     0.179200000000     0.695950000000     0.113766666667     0          
T        Si     0.178550000000     0.625000000000     0.198300000000     0          
T        Si     0.239700000000     0.625000000000     0.057966666667     0          
O        O      0.289700000000     0.670850000000     0.261066666667     0          
O        O      0.306100000000     0.500000000000     0.215733333333     0          
O        O      0.311700000000     0.670875000000     0.167533333333     0          
O        O      0.375000000000     0.691900000000     0.234033333333     0          
O        O      0.288300000000     0.625000000000     0.087400000000     0          
O        O      0.375000000000     0.625000000000     0.117533333333     0          
T        Si     0.320800000000     0.695950000000     0.219566666667     0          
T        Si     0.321450000000     0.625000000000     0.135033333333     0          
T        Si     0.260300000000     0.625000000000     0.275366666667     0          
O        O      0.460300000000     0.579150000000     0.261066666667     0          
O        O      0.443900000000     0.500000000000     0.215733333333     0          
O        O      0.438300000000     0.579125000000     0.167533333333     0          
O        O      0.375000000000     0.558100000000     0.234033333333     0          
O        O      0.461700000000     0.625000000000     0.087400000000     0          
T        Si     0.429200000000     0.554050000000     0.219566666667     0          
T        Si     0.428550000000     0.625000000000     0.135033333333     0          
T        Si     0.489700000000     0.625000000000     0.275366666667     0          
O        O      0.460300000000     0.670850000000     0.261066666667     0          
O        O      0.438300000000     0.670875000000     0.167533333333     0          
T        Si     0.429200000000     0.695950000000     0.219566666667     0          
O        O      0.289700000000     0.579150000000     0.261066666667     0          
O        O      0.311700000000     0.579125000000     0.167533333333     0          
T        Si     0.320800000000     0.554050000000     0.219566666667     0          
O        O      0.210300000000     0.579150000000     0.072266666667     0          
O        O      0.188300000000     0.579125000000     0.165800000000     0          
T        Si     0.179200000000     0.554050000000     0.113766666667     0          
O        O      0.039700000000     0.670850000000     0.072266666667     0          
O        O      0.061700000000     0.670875000000     0.165800000000     0          
T        Si     0.070800000000     0.695950000000     0.113766666667     0          
O        O      0.039700000000     0.579150000000     0.405600000000     0          
O        O      0.056100000000     0.500000000000     0.450933333333     0          
O        O      0.061700000000     0.579125000000     0.499133333333     0          
O        O      0.125000000000     0.558100000000     0.432633333333     0          
O        O      0.038300000000     0.625000000000     0.579266666667     0          
O        O      0.125000000000     0.625000000000     0.549133333333     0          
O        O      0.000000000000     0.625000000000     0.333333333333     0          
T        Si     0.070800000000     0.554050000000     0.447100000000     0          
T        Si     0.071450000000     0.625000000000     0.531633333333     0          
T        Si     0.010300000000     0.625000000000     0.391300000000     0          
O        O      0.210300000000     0.670850000000     0.405600000000     0          
O        O      0.193900000000     0.500000000000     0.450933333333     0          
O        O      0.188300000000     0.670875000000     0.499133333333     0          
O        O      0.125000000000     0.691900000000     0.432633333333     0          
O        O      0.211700000000     0.625000000000     0.579266666667     0          
O        O      0.250000000000     0.625000000000     0.333333333333     0          
T        Si     0.179200000000     0.695950000000     0.447100000000     0          
T        Si     0.178550000000     0.625000000000     0.531633333333     0          
T        Si     0.239700000000     0.625000000000     0.391300000000     0          
O        O      0.289700000000     0.670850000000     0.594400000000     0          
O        O      0.306100000000     0.500000000000     0.549066666667     0          
O        O      0.311700000000     0.670875000000     0.500866666667     0          
O        O      0.375000000000     0.691900000000     0.567366666667     0          
O        O      0.288300000000     0.625000000000     0.420733333333     0          
O        O      0.375000000000     0.625000000000     0.450866666667     0          
T        Si     0.320800000000     0.695950000000     0.552900000000     0          
T        Si     0.321450000000     0.625000000000     0.468366666667     0          
T        Si     0.260300000000     0.625000000000     0.608700000000     0          
O        O      0.460300000000     0.579150000000     0.594400000000     0          
O        O      0.443900000000     0.500000000000     0.549066666667     0          
O        O      0.438300000000     0.579125000000     0.500866666667     0          
O        O      0.375000000000     0.558100000000     0.567366666667     0          
O        O      0.461700000000     0.625000000000     0.420733333333     0          
T        Si     0.429200000000     0.554050000000     0.552900000000     0          
T        Si     0.428550000000     0.625000000000     0.468366666667     0          
T        Si     0.489700000000     0.625000000000     0.608700000000     0          
O        O      0.460300000000     0.670850000000     0.594400000000     0          
O        O      0.438300000000     0.670875000000     0.500866666667     0          
T        Si     0.429200000000     0.695950000000     0.552900000000     0          
O        O      0.289700000000     0.579150000000     0.594400000000     0          
O        O      0.311700000000     0.579125000000     0.500866666667     0          
T        Si     0.320800000000     0.554050000000     0.552900000000     0          
O        O      0.210300000000     0.579150000000     0.405600000000     0          
O        O      0.188300000000     0.579125000000     0.499133333333     0          
T        Si     0.179200000000     0.554050000000     0.447100000000     0          
O        O      0.039700000000     0.670850000000     0.405600000000     0          
O        O      0.061700000000     0.670875000000     0.499133333333     0          
T        Si     0.070800000000     0.695950000000     0.447100000000     0          
O        O      0.039700000000     0.579150000000     0.738933333333     0          
O        O      0.056100000000     0.500000000000     0.784266666667     0          
O        O      0.061700000000     0.579125000000     0.832466666667     0          
O        O      0.125000000000     0.558100000000     0.765966666667     0          
O        O      0.038300000000     0.625000000000     0.912600000000     0          
O        O      0.125000000000     0.625000000000     0.882466666667     0          
O        O      0.000000000000     0.625000000000     0.666666666667     0          
T        Si     0.070800000000     0.554050000000     0.780433333333     0          
T        Si     0.071450000000     0.625000000000     0.864966666667     0          
T        Si     0.010300000000     0.625000000000     0.724633333333     0          
O        O      0.210300000000     0.670850000000     0.738933333333     0          
O        O      0.193900000000     0.500000000000     0.784266666667     0          
O        O      0.188300000000     0.670875000000     0.832466666667     0          
O        O      0.125000000000     0.691900000000     0.765966666667     0          
O        O      0.211700000000     0.625000000000     0.912600000000     0          
O        O      0.250000000000     0.625000000000     0.666666666667     0          
T        Si     0.179200000000     0.695950000000     0.780433333333     0          
T        Si     0.178550000000     0.625000000000     0.864966666667     0          
T        Si     0.239700000000     0.625000000000     0.724633333333     0          
O        O      0.289700000000     0.670850000000     0.927733333333     0          
O        O      0.306100000000     0.500000000000     0.882400000000     0          
O        O      0.311700000000     0.670875000000     0.834200000000     0          
O        O      0.375000000000     0.691900000000     0.900700000000     0          
O        O      0.288300000000     0.625000000000     0.754066666667     0          
O        O      0.375000000000     0.625000000000     0.784200000000     0          
T        Si     0.320800000000     0.695950000000     0.886233333333     0          
T        Si     0.321450000000     0.625000000000     0.801700000000     0          
T        Si     0.260300000000     0.625000000000     0.942033333333     0          
O        O      0.460300000000     0.579150000000     0.927733333333     0          
O        O      0.443900000000     0.500000000000     0.882400000000     0          
O        O      0.438300000000     0.579125000000     0.834200000000     0          
O        O      0.375000000000     0.558100000000     0.900700000000     0          
O        O      0.461700000000     0.625000000000     0.754066666667     0          
T        Si     0.429200000000     0.554050000000     0.886233333333     0          
T        Si     0.428550000000     0.625000000000     0.801700000000     0          
T        Si     0.489700000000     0.625000000000     0.942033333333     0          
O        O      0.460300000000     0.670850000000     0.927733333333     0          
O        O      0.438300000000     0.670875000000     0.834200000000     0          
T        Si     0.429200000000     0.695950000000     0.886233333333     0          
O        O      0.289700000000     0.579150000000     0.927733333333     0          
O        O      0.311700000000     0.579125000000     0.834200000000     0          
T        Si     0.320800000000     0.554050000000     0.886233333333     0          
O        O      0.210300000000     0.579150000000     0.738933333333     0          
O        O      0.188300000000     0.579125000000     0.832466666667     0          
T        Si     0.179200000000     0.554050000000     0.780433333333     0          
O        O      0.039700000000     0.670850000000     0.738933333333     0          
O        O      0.061700000000     0.670875000000     0.832466666667     0          
T        Si     0.070800000000     0.695950000000     0.780433333333     0          
O        O      0.039700000000     0.829150000000     0.072266666667     0          
O        O      0.056100000000     0.750000000000     0.117600000000     0          
O        O      0.061700000000     0.829125000000     0.165800000000     0          
O        O      0.125000000000     0.808100000000     0.099300000000     0          
O        O      0.038300000000     0.875000000000     0.245933333333     0          
O        O      0.125000000000     0.875000000000     0.215800000000     0          
O        O      0.000000000000     0.875000000000     0.000000000000     0          
T        Si     0.070800000000     0.804050000000     0.113766666667     0          
T        Si     0.071450000000     0.875000000000     0.198300000000     0          
T        Si     0.010300000000     0.875000000000     0.057966666667     0          
O        O      0.210300000000     0.920850000000     0.072266666667     0          
O        O      0.193900000000     0.750000000000     0.117600000000     0          
O        O      0.188300000000     0.920875000000     0.165800000000     0          
O        O      0.125000000000     0.941900000000     0.099300000000     0          
O        O      0.211700000000     0.875000000000     0.245933333333     0          
O        O      0.250000000000     0.875000000000     0.000000000000     0          
T        Si     0.179200000000     0.945950000000     0.113766666667     0          
T        Si     0.178550000000     0.875000000000     0.198300000000     0          
T        Si     0.239700000000     0.875000000000     0.057966666667     0          
O        O      0.289700000000     0.920850000000     0.261066666667     0          
O        O      0.306100000000     0.750000000000     0.215733333333     0          
O        O      0.311700000000     0.920875000000     0.167533333333     0          
O        O      0.375000000000     0.941900000000     0.234033333333     0          
O        O      0.288300000000     0.875000000000     0.087400000000     0          
O        O      0.375000000000     0.875000000000     0.117533333333     0          
T        Si     0.320800000000     0.945950000000     0.219566666667     0          
T        Si     0.321450000000     0.875000000000     0.135033333333     0          
T        Si     0.260300000000     0.875000000000     0.275366666667     0          
O        O      0.460300000000     0.829150000000     0.261066666667     0          
O        O      0.443900000000     0.750000000000     0.215733333333     0          
O        O      0.438300000000     0.829125000000     0.167533333333     0          
O        O      0.375000000000     0.808100000000     0.234033333333     0          
O        O      0.461700000000     0.875000000000     0.087400000000     0          
T        Si     0.429200000000     0.804050000000     0.219566666667     0          
T        Si     0.428550000000     0.875000000000     0.135033333333     0          
T        Si     0.489700000000     0.875000000000     0.275366666667     0          
O        O      0.460300000000     0.920850000000     0.261066666667     0          
O        O      0.438300000000     0.920875000000     0.167533333333     0          
T        Si     0.429200000000     0.945950000000     0.219566666667     0          
O        O      0.289700000000     0.829150000000     0.261066666667     0          
O        O      0.311700000000     0.829125000000     0.167533333333     0          
T        Si     0.320800000000     0.804050000000     0.219566666667     0          
O        O      0.210300000000     0.829150000000     0.072266666667     0          
O        O      0.188300000000     0.829125000000     0.165800000000     0          
T        Si     0.179200000000     0.804050000000     0.113766666667     0          
O        O      0.039700000000     0.920850000000     0.072266666667     0          
O        O      0.061700000000     0.920875000000     0.165800000000     0          
T        Si     0.070800000000     0.945950000000     0.113766666667     0          
O        O      0.039700000000     0.829150000000     0.405600000000     0          
O        O      0.056100000000     0.750000000000     0.450933333333     0          
O        O      0.061700000000     0.829125000000     0.499133333333     0          
O        O      0.125000000000     0.808100000000     0.432633333333     0          
O        O      0.038300000000     0.875000000000     0.579266666667     0          
O        O      0.125000000000     0.875000000000     0.549133333333     0          
O        O      0.000000000000     0.875000000000     0.333333333333     0          
T        Si     0.070800000000     0.804050000000     0.447100000000     0          
T        Si     0.071450000000     0.875000000000     0.531633333333     0          
T        Si     0.010300000000     0.875000000000     0.391300000000     0          
O        O      0.210300000000     0.920850000000     0.405600000000     0          
O        O      0.193900000000     0.750000000000     0.450933333333     0          
O        O      0.188300000000     0.920875000000     0.499133333333     0          
O        O      0.125000000000     0.941900000000     0.432633333333     0          
O        O      0.211700000000     0.875000000000     0.579266666667     0          
O        O      0.250000000000     0.875000000000     0.333333333333     0          
T        Si     0.179200000000     0.945950000000     0.447100000000     0          
T        Si     0.178550000000     0.875000000000     0.531633333333     0          
T        Si     0.239700000000     0.875000000000     0.391300000000     0          
O        O      0.289700000000     0.920850000000     0.594400000000     0          
O        O      0.306100000000     0.750000000000     0.549066666667     0          
O        O      0.311700000000     0.920875000000     0.500866666667     0          
O        O      0.375000000000     0.941900000000     0.567366666667     0          
O        O      0.288300000000     0.875000000000     0.420733333333     0          
O        O      0.375000000000     0.875000000000     0.450866666667     0          
T        Si     0.320800000000     0.945950000000     0.552900000000     0          
T        Si     0.321450000000     0.875000000000     0.468366666667     0          
T        Si     0.260300000000     0.875000000000     0.608700000000     0          
O        O      0.460300000000     0.829150000000     0.594400000000     0          
O        O      0.443900000000     0.750000000000     0.549066666667     0          
O        O      0.438300000000     0.829125000000     0.500866666667     0          
O        O      0.375000000000     0.808100000000     0.567366666667     0          
O        O      0.461700000000     0.875000000000     0.420733333333     0          
T        Si     0.429200000000     0.804050000000     0.552900000000     0          
T        Si     0.428550000000     0.875000000000     0.468366666667     0          
T        Si     0.489700000000     0.875000000000     0.608700000000     0          
O        O      0.460300000000     0.920850000000     0.594400000000     0          
O        O      0.438300000000     0.920875000000     0.500866666667     0          
T        Si     0.429200000000     0.945950000000     0.552900000000     0          
O        O      0.289700000000     0.829150000000     0.594400000000     0          
O        O      0.311700000000     0.829125000000     0.500866666667     0          
T        Si     0.320800000000     0.804050000000     0.552900000000     0          
O        O      0.210300000000     0.829150000000     0.405600000000     0          
O        O      0.188300000000     0.829125000000     0.499133333333     0          
T        Si     0.179200000000     0.804050000000     0.447100000000     0          
O        O      0.039700000000     0.920850000000     0.405600000000     0          
O        O      0.061700000000     0.920875000000     0.499133333333     0          
T        Si     0.070800000000     0.945950000000     0.447100000000     0          
O        O      0.039700000000     0.829150000000     0.738933333333     0          
O        O      0.056100000000     0.750000000000     0.784266666667     0          
O        O      0.061700000000     0.829125000000     0.832466666667     0          
O        O      0.125000000000     0.808100000000     0.765966666667     0          
O        O      0.038300000000     0.875000000000     0.912600000000     0          
O        O      0.125000000000     0.875000000000     0.882466666667     0          
O        O      0.000000000000     0.875000000000     0.666666666667     0          
T        Si     0.070800000000     0.804050000000     0.780433333333     0          
T        Si     0.071450000000     0.875000000000     0.864966666667     0          
T        Si     0.010300000000     0.875000000000     0.724633333333     0          
O        O      0.210300000000     0.920850000000     0.738933333333     0          
O        O      0.193900000000     0.750000000000     0.784266666667     0          
O        O      0.188300000000     0.920875000000     0.832466666667     0          
O        O      0.125000000000     0.941900000000     0.765966666667     0          
O        O      0.211700000000     0.875000000000     0.912600000000     0          
O        O      0.250000000000     0.875000000000     0.666666666667     0          
T        Si     0.179200000000     0.945950000000     0.780433333333     0          
T        Si     0.178550000000     0.875000000000     0.864966666667     0          
T        Si     0.239700000000     0.875000000000     0.724633333333     0          
O        O      0.289700000000     0.920850000000     0.927733333333     0          
O        O      0.306100000000     0.750000000000     0.882400000000     0          
O        O      0.311700000000     0.920875000000     0.834200000000     0          
O        O      0.375000000000     0.941900000000     0.900700000000     0          
O        O      0.288300000000     0.875000000000     0.754066666667     0          
O        O      0.375000000000     0.875000000000     0.784200000000     0          
T        Si     0.320800000000     0.945950000000     0.886233333333     0          
T        Si     0.321450000000     0.875000000000     0.801700000000     0          
T        Si     0.260300000000     0.875000000000     0.942033333333     0          
O        O      0.460300000000     0.829150000000     0.927733333333     0          
O        O      0.443900000000     0.750000000000     0.882400000000     0          
O        O      0.438300000000     0.829125000000     0.834200000000     0          
O        O      0.375000000000     0.808100000000     0.900700000000     0          
O        O      0.461700000000     0.875000000000     0.754066666667     0          
T        Si     0.429200000000     0.804050000000     0.886233333333     0          
T        Si     0.428550000000     0.875000000000     0.801700000000     0          
T        Si     0.489700000000     0.875000000000     0.942033333333     0          
O        O      0.460300000000     0.920850000000     0.927733333333     0          
O        O      0.438300000000     0.920875000000     0.834200000000     0          
T        Si     0.429200000000     0.945950000000     0.886233333333     0          
O        O      0.289700000000     0.829150000000     0.927733333333     0          
O        O      0.311700000000     0.829125000000     0.834200000000     0          
T        Si     0.320800000000     0.804050000000     0.886233333333     0          
O        O      0.210300000000     0.829150000000     0.738933333333     0          
O        O      0.188300000000     0.829125000000     0.832466666667     0          
T        Si     0.179200000000     0.804050000000     0.780433333333     0          
O        O      0.039700000000     0.920850000000     0.738933333333     0          
O        O      0.061700000000     0.920875000000     0.832466666667     0          
T        Si     0.070800000000     0.945950000000     0.780433333333     0          
O        O      0.539700000000     0.079150000000     0.072266666667     0          
O        O      0.556100000000     0.000000000000     0.117600000000     0          
O        O      0.561700000000     0.079125000000     0.165800000000     0          
O        O      0.625000000000     0.058100000000     0.099300000000     0          
O        O      0.538300000000     0.125000000000     0.245933333333     0          
O        O      0.625000000000     0.125000000000     0.215800000000     0          
O        O      0.500000000000     0.125000000000     0.000000000000     0          
T        Si     0.570800000000     0.054050000000     0.113766666667     0          
T        Si     0.571450000000     0.125000000000     0.198300000000     0          
T        Si     0.510300000000     0.125000000000     0.057966666667     0          
O        O      0.710300000000     0.170850000000     0.072266666667     0          
O        O      0.693900000000     0.000000000000     0.117600000000     0          
O        O      0.688300000000     0.170875000000     0.165800000000     0          
O        O      0.625000000000     0.191900000000     0.099300000000     0          
O        O      0.711700000000     0.125000000000     0.245933333333     0          
O        O      0.750000000000     0.125000000000     0.000000000000     0          
T        Si     0.679200000000     0.195950000000     0.113766666667     0          
T        Si     0.678550000000     0.125000000000     0.198300000000     0          
T        Si     0.739700000000     0.125000000000     0.057966666667     0          
O        O      0.789700000000     0.170850000000     0.261066666667     0          
O        O      0.806100000000     0.000000000000     0.215733333333     0          
O        O      0.811700000000     0.170875000000     0.167533333333     0          
O        O      0.875000000000     0.191900000000     0.234033333333     0          
O        O      0.788300000000     0.125000000000     0.087400000000     0          
O        O      0.875000000000     0.125000000000     0.117533333333     0          
T        Si     0.820800000000     0.195950000000     0.219566666667     0          
T        Si     0.821450000000     0.125000000000     0.135033333333     0          
T        Si     0.760300000000     0.125000000000     0.275366666667     0          
O        O      0.960300000000     0.079150000000     0.261066666667     0          
O        O      0.943900000000     0.000000000000     0.215733333333     0          
O        O      0.938300000000     0.079125000000     0.167533333333     0          
O        O      0.875000000000     0.058100000000     0.234033333333     0          
O        O      0.961700000000     0.125000000000     0.087400000000     0          
T        Si     0.929200000000     0.054050000000     0.219566666667     0          
T        Si     0.928550000000     0.125000000000     0.135033333333     0          
T        Si     0.989700000000     0.125000000000     0.275366666667     0          
O        O      0.960300000000     0.170850000000     0.261066666667     0          
O        O      0.938300000000     0.170875000000     0.167533333333     0          
T        Si     0.929200000000     0.195950000000     0.219566666667     0          
O        O      0.789700000000     0.079150000000     0.261066666667     0          
O        O      0.811700000000     0.079125000000     0.167533333333     0          
T        Si     0.820800000000     0.054050000000     0.219566666667     0          
O        O      0.710300000000     0.079150000000     0.072266666667     0          
O        O      0.688300000000     0.079125000000     0.165800000000     0          
T        Si     0.679200000000     0.054050000000     0.113766666667     0          
O        O      0.539700000000     0.170850000000     0.072266666667     0          
O        O      0.561700000000     0.170875000000     0.165800000000     0          
T        Si     0.570800000000     0.195950000000     0.113766666667     0          
O        O      0.539700000000     0.079150000000     0.405600000000     0          
O        O      0.556100000000     0.000000000000     0.450933333333     0          
O        O      0.561700000000     0.079125000000     0.499133333333     0          
O        O      0.625000000000     0.058100000000     0.432633333333     0          
O        O      0.538300000000     0.125000000000     0.579266666667     0          
O        O      0.625000000000     0.125000000000     0.549133333333     0          
O        O      0.500000000000     0.125000000000     0.333333333333     0          
T        Si     0.570800000000     0.054050000000     0.447100000000     0          
T        Si     0.571450000000     0.125000000000     0.531633333333     0          
T        Si     0.510300000000     0.125000000000     0.391300000000     0          
O        O      0.710300000000     0.170850000000     0.405600000000     0          
O        O      0.693900000000     0.000000000000     0.450933333333     0          
O        O      0.688300000000     0.170875000000     0.499133333333     0          
O        O      0.625000000000     0.191900000000     0.432633333333     0          
O        O      0.711700000000     0.125000000000     0.579266666667     0          
O        O      0.750000000000     0.125000000000     0.333333333333     0          
T        Si     0.679200000000     0.195950000000     0.447100000000     0          
T        Si     0.678550000000     0.125000000000     0.531633333333     0          
T        Si     0.739700000000     0.125000000000     0.391300000000     0          
O        O      0.789700000000     0.170850000000     0.594400000000     0          
O        O      0.806100000000     0.000000000000     0.549066666667     0          
O        O      0.811700000000     0.170875000000     0.500866666667     0          
O        O      0.875000000000     0.191900000000     0.567366666667     0          
O        O      0.788300000000     0.125000000000     0.420733333333     0          
O        O      0.875000000000     0.125000000000     0.450866666667     0          
T        Si     0.820800000000     0.195950000000     0.552900000000     0          
T        Si     0.821450000000     0.125000000000     0.468366666667     0          
T        Si     0.760300000000     0.125000000000     0.608700000000     0          
O        O      0.960300000000     0.079150000000     0.594400000000     0          
O        O      0.943900000000     0.000000000000     0.549066666667     0          
O        O      0.938300000000     0.079125000000     0.500866666667     0          
O        O      0.875000000000     0.058100000000     0.567366666667     0          
O        O      0.961700000000     0.125000000000     0.420733333333     0          
T        Si     0.929200000000     0.054050000000     0.552900000000     0          
T        Si     0.928550000000     0.125000000000     0.468366666667     0          
T        Si     0.989700000000     0.125000000000     0.608700000000     0          
O        O      0.960300000000     0.170850000000     0.594400000000     0          
O        O      0.938300000000     0.170875000000     0.500866666667     0          
T        Si     0.929200000000     0.195950000000     0.552900000000     0          
O        O      0.789700000000     0.079150000000     0.594400000000     0          
O        O      0.811700000000     0.079125000000     0.500866666667     0          
T        Si     0.820800000000     0.054050000000     0.552900000000     0          
O        O      0.710300000000     0.079150000000     0.405600000000     0          
O        O      0.688300000000     0.079125000000     0.499133333333     0          
T        Si     0.679200000000     0.054050000000     0.447100000000     0          
O        O      0.539700000000     0.170850000000     0.405600000000     0          
O        O      0.561700000000     0.170875000000     0.499133333333     0          
T        Si     0.570800000000     0.195950000000     0.447100000000     0          
O        O      0.539700000000     0.079150000000     0.738933333333     0          
O        O      0.556100000000     0.000000000000     0.784266666667     0          
O        O      0.561700000000     0.079125000000     0.832466666667     0          
O        O      0.625000000000     0.058100000000     0.765966666667     0          
O        O      0.538300000000     0.125000000000     0.912600000000     0          
O        O      0.625000000000     0.125000000000     0.882466666667     0          
O        O      0.500000000000     0.125000000000     0.666666666667     0          
T        Si     0.570800000000     0.054050000000     0.780433333333     0          
T        Si     0.571450000000     0.125000000000     0.864966666667     0          
T        Si     0.510300000000     0.125000000000     0.724633333333     0          
O        O      0.710300000000     0.170850000000     0.738933333333     0          
O        O      0.693900000000     0.000000000000     0.784266666667     0          
O        O      0.688300000000     0.170875000000     0.832466666667     0          
O        O      0.625000000000     0.191900000000     0.765966666667     0          
O        O      0.711700000000     0.125000000000     0.912600000000     0          
O        O      0.750000000000     0.125000000000     0.666666666667     0          
T        Si     0.679200000000     0.195950000000     0.780433333333     0          
T        Si     0.678550000000     0.125000000000     0.864966666667     0          
T        Si     0.739700000000     0.125000000000     0.724633333333     0          
O        O      0.789700000000     0.170850000000     0.927733333333     0          
O        O      0.806100000000     0.000000000000     0.882400000000     0          
O        O      0.811700000000     0.170875000000     0.834200000000     0          
O        O      0.875000000000     0.191900000000     0.900700000000     0          
O        O      0.788300000000     0.125000000000     0.754066666667     0          
O        O      0.875000000000     0.125000000000     0.784200000000     0          
T        Si     0.820800000000     0.195950000000     0.886233333333     0          
T        Si     0.821450000000     0.125000000000     0.801700000000     0          
T        Si     0.760300000000     0.125000000000     0.942033333333     0          
O        O      0.960300000000     0.079150000000     0.927733333333     0          
O        O      0.943900000000     0.000000000000     0.882400000000     0          
O        O      0.938300000000     0.079125000000     0.834200000000     0          
O        O      0.875000000000     0.058100000000     0.900700000000     0          
O        O      0.961700000000     0.125000000000     0.754066666667     0          
T        Si     0.929200000000     0.054050000000     0.886233333333     0          
T        Si     0.928550000000     0.125000000000     0.801700000000     0          
T        Si     0.989700000000     0.125000000000     0.942033333333     0          
O        O      0.960300000000     0.170850000000     0.927733333333     0          
O        O      0.938300000000     0.170875000000     0.834200000000     0          
T        Si     0.929200000000     0.195950000000     0.886233333333     0          
O        O      0.789700000000     0.079150000000     0.927733333333     0          
O        O      0.811700000000     0.079125000000     0.834200000000     0          
T        Si     0.820800000000     0.054050000000     0.886233333333     0          
O        O      0.710300000000     0.079150000000     0.738933333333     0          
O        O      0.688300000000     0.079125000000     0.832466666667     0          
T        Si     0.679200000000     0.054050000000     0.780433333333     0          
O        O      0.539700000000     0.170850000000     0.738933333333     0          
O        O      0.561700000000     0.170875000000     0.832466666667     0          
T        Si     0.570800000000     0.195950000000     0.780433333333     0          
O        O      0.539700000000     0.329150000000     0.072266666667     0          
O        O      0.556100000000     0.250000000000     0.117600000000     0          
O        O      0.561700000000     0.329125000000     0.165800000000     0          
O        O      0.625000000000     0.308100000000     0.099300000000     0          
O        O      0.538300000000     0.375000000000     0.245933333333     0          
O        O      0.625000000000     0.375000000000     0.215800000000     0          
O        O      0.500000000000     0.375000000000     0.000000000000     0          
T        Si     0.570800000000     0.304050000000     0.113766666667     0          
T        Si     0.571450000000     0.375000000000     0.198300000000     0          
T        Si     0.510300000000     0.375000000000     0.057966666667     0          
O        O      0.710300000000     0.420850000000     0.072266666667     0          
O        O      0.693900000000     0.250000000000     0.117600000000     0          
O        O      0.688300000000     0.420875000000     0.165800000000     0          
O        O      0.625000000000     0.441900000000     0.099300000000     0          
O        O      0.711700000000     0.375000000000     0.245933333333     0          
O        O      0.750000000000     0.375000000000     0.000000000000     0          
T        Si     0.679200000000     0.445950000000     0.113766666667     0          
T        Si     0.678550000000     0.375000000000     0.198300000000     0          
T        Si     0.739700000000     0.375000000000     0.057966666667     0          
O        O      0.789700000000     0.420850000000     0.261066666667     0          
O        O      0.806100000000     0.250000000000     0.215733333333     0          
O        O      0.811700000000     0.420875000000     0.167533333333     0          
O        O      0.875000000000     0.441900000000     0.234033333333     0          
O        O      0.788300000000     0.375000000000     0.087400000000     0          
O        O      0.875000000000     0.375000000000     0.117533333333     0          
T        Si     0.820800000000     0.445950000000     0.219566666667     0          
T        Si     0.821450000000     0.375000000000     0.135033333333     0          
T        Si     0.760300000000     0.375000000000     0.275366666667     0          
O        O      0.960300000000     0.329150000000     0.261066666667     0          
O        O      0.943900000000     0.250000000000     0.215733333333     0          
O        O      0.938300000000     0.329125000000     0.167533333333     0          
O        O      0.875000000000     0.308100000000     0.234033333333     0          
O        O      0.961700000000     0.375000000000     0.087400000000     0          
T        Si     0.929200000000     0.304050000000     0.219566666667     0          
T        Si     0.928550000000     0.375000000000     0.135033333333     0          
T        Si     0.989700000000     0.375000000000     0.275366666667     0          
O        O      0.960300000000     0.420850000000     0.261066666667     0          
O        O      0.938300000000     0.420875000000     0.167533333333     0          
T        Si     0.929200000000     0.445950000000     0.219566666667     0          
O        O      0.789700000000     0.329150000000     0.261066666667     0          
O        O      0.811700000000     0.329125000000     0.167533333333     0          
T        Si     0.820800000000     0.304050000000     0.219566666667     0          
O        O      0.710300000000     0.329150000000     0.072266666667     0          
O        O      0.688300000000     0.329125000000     0.165800000000     0          
T        Si     0.679200000000     0.304050000000     0.113766666667     0          
O        O      0.539700000000     0.420850000000     0.072266666667     0          
O        O      0.561700000000     0.420875000000     0.165800000000     0          
T        Si     0.570800000000     0.445950000000     0.113766666667     0          
O        O      0.539700000000     0.329150000000     0.405600000000     0          
O        O      0.556100000000     0.250000000000     0.450933333333     0          
O        O      0.561700000000     0.329125000000     0.499133333333     0          
O        O      0.625000000000     0.308100000000     0.432633333333     0          
O        O      0.538300000000     0.375000000000     0.579266666667     0          
O        O      0.625000000000     0.375000000000     0.549133333333     0          
O        O      0.500000000000     0.375000000000     0.333333333333     0          
T        Si     0.570800000000     0.304050000000     0.447100000000     0          
T        Si     0.571450000000     0.375000000000     0.531633333333     0          
T        Si     0.510300000000     0.375000000000     0.391300000000     0          
O        O      0.710300000000     0.420850000000     0.405600000000     0          
O        O      0.693900000000     0.250000000000     0.450933333333     0          
O        O      0.688300000000     0.420875000000     0.499133333333     0          
O        O      0.625000000000     0.441900000000     0.432633333333     0          
O        O      0.711700000000     0.375000000000     0.579266666667     0          
O        O      0.750000000000     0.375000000000     0.333333333333     0          
T        Si     0.679200000000     0.445950000000     0.447100000000     0          
T        Si     0.678550000000     0.375000000000     0.531633333333     0          
T        Si     0.739700000000     0.375000000000     0.391300000000     0          
O        O      0.789700000000     0.420850000000     0.594400000000     0          
O        O      0.806100000000     0.250000000000     0.549066666667     0          
O        O      0.811700000000     0.420875000000     0.500866666667     0          
O        O      0.875000000000     0.441900000000     0.567366666667     0          
O        O      0.788300000000     0.375000000000     0.420733333333     0          
O        O      0.875000000000     0.375000000000     0.450866666667     0          
T        Si     0.820800000000     0.445950000000     0.552900000000     0          
T        Si     0.821450000000     0.375000000000     0.468366666667     0          
T        Si     0.760300000000     0.375000000000     0.608700000000     0          
O        O      0.960300000000     0.329150000000     0.594400000000     0          
O        O      0.943900000000     0.250000000000     0.549066666667     0          
O        O      0.938300000000     0.329125000000     0.500866666667     0          
O        O      0.875000000000     0.308100000000     0.567366666667     0          
O        O      0.961700000000     0.375000000000     0.420733333333     0          
T        Si     0.929200000000     0.304050000000     0.552900000000     0          
T        Si     0.928550000000     0.375000000000     0.468366666667     0          
T        Si     0.989700000000     0.375000000000     0.608700000000     0          
O        O      0.960300000000     0.420850000000     0.594400000000     0          
O        O      0.938300000000     0.420875000000     0.500866666667     0          
T        Si     0.929200000000     0.445950000000     0.552900000000     0          
O        O      0.789700000000     0.329150000000     0.594400000000     0          
O        O      0.811700000000     0.329125000000     0.500866666667     0          
T        Si     0.820800000000     0.304050000000     0.552900000000     0          
O        O      0.710300000000     0.329150000000     0.405600000000     0          
O        O      0.688300000000     0.329125000000     0.499133333333     0          
T        Si     0.679200000000     0.304050000000     0.447100000000     0          
O        O      0.539700000000     0.420850000000     0.405600000000     0          
O        O      0.561700000000     0.420875000000     0.499133333333     0          
T        Si     0.570800000000     0.445950000000     0.447100000000     0          
O        O      0.539700000000     0.329150000000     0.738933333333     0          
O        O      0.556100000000     0.250000000000     0.784266666667     0          
O        O      0.561700000000     0.329125000000     0.832466666667     0          
O        O      0.625000000000     0.308100000000     0.765966666667     0          
O        O      0.538300000000     0.375000000000     0.912600000000     0          
O        O      0.625000000000     0.375000000000     0.882466666667     0          
O        O      0.500000000000     0.375000000000     0.666666666667     0          
T        Si     0.570800000000     0.304050000000     0.780433333333     0          
T        Si     0.571450000000     0.375000000000     0.864966666667     0          
T        Si     0.510300000000     0.375000000000     0.724633333333     0          
O        O      0.710300000000     0.420850000000     0.738933333333     0          
O        O      0.693900000000     0.250000000000     0.784266666667     0          
O        O      0.688300000000     0.420875000000     0.832466666667     0          
O        O      0.625000000000     0.441900000000     0.765966666667     0          
O        O      0.711700000000     0.375000000000     0.912600000000     0          
O        O      0.750000000000     0.375000000000     0.666666666667     0          
T        Si     0.679200000000     0.445950000000     0.780433333333     0          
T        Si     0.678550000000     0.375000000000     0.864966666667     0          
T        Si     0.739700000000     0.375000000000     0.724633333333     0          
O        O      0.789700000000     0.420850000000     0.927733333333     0          
O        O      0.806100000000     0.250000000000     0.882400000000     0          
O        O      0.811700000000     0.420875000000     0.834200000000     0          
O        O      0.875000000000     0.441900000000     0.900700000000     0          
O        O      0.788300000000     0.375000000000     0.754066666667     0          
O        O      0.875000000000     0.375000000000     0.784200000000     0          
T        Si     0.820800000000     0.445950000000     0.886233333333     0          
T        Si     0.821450000000     0.375000000000     0.801700000000     0          
T        Si     0.760300000000     0.375000000000     0.942033333333     0          
O        O      0.960300000000     0.329150000000     0.927733333333     0          
O        O      0.943900000000     0.250000000000     0.882400000000     0          
O        O      0.938300000000     0.329125000000     0.834200000000     0          
O        O      0.875000000000     0.308100000000     0.900700000000     0          
O        O      0.961700000000     0.375000000000     0.754066666667     0          
T        Si     0.929200000000     0.304050000000     0.886233333333     0          
T        Si     0.928550000000     0.375000000000     0.801700000000     0          
T        Si     0.989700000000     0.375000000000     0.942033333333     0          
O        O      0.960300000000     0.420850000000     0.927733333333     0          
O        O      0.938300000000     0.420875000000     0.834200000000     0          
T        Si     0.929200000000     0.445950000000     0.886233333333     0          
O        O      0.789700000000     0.329150000000     0.927733333333     0          
O        O      0.811700000000     0.329125000000     0.834200000000     0          
T        Si     0.820800000000     0.304050000000     0.886233333333     0          
O        O      0.710300000000     0.329150000000     0.738933333333     0          
O        O      0.688300000000     0.329125000000     0.832466666667     0          
T        Si     0.679200000000     0.304050000000     0.780433333333     0          
O        O      0.539700000000     0.420850000000     0.738933333333     0          
O        O      0.561700000000     0.420875000000     0.832466666667     0          
T        Si     0.570800000000     0.445950000000     0.780433333333     0          
O        O      0.539700000000     0.579150000000     0.072266666667     0          
O        O      0.556100000000     0.500000000000     0.117600000000     0          
O        O      0.561700000000     0.579125000000     0.165800000000     0          
O        O      0.625000000000     0.558100000000     0.099300000000     0          
O        O      0.538300000000     0.625000000000     0.245933333333     0          
O        O      0.625000000000     0.625000000000     0.215800000000     0          
O        O      0.500000000000     0.625000000000     0.000000000000     0          
T        Si     0.570800000000     0.554050000000     0.113766666667     0          
T        Si     0.571450000000     0.625000000000     0.198300000000     0          
T        Si     0.510300000000     0.625000000000     0.057966666667     0          
O        O      0.710300000000     0.670850000000     0.072266666667     0          
O        O      0.693900000000     0.500000000000     0.117600000000     0          
O        O      0.688300000000     0.670875000000     0.165800000000     0          
O        O      0.625000000000     0.691900000000     0.099300000000     0          
O        O      0.711700000000     0.625000000000     0.245933333333     0          
O        O      0.750000000000     0.625000000000     0.000000000000     0          
T        Si     0.679200000000     0.695950000000     0.113766666667     0          
T        Si     0.678550000000     0.625000000000     0.198300000000     0          
T        Si     0.739700000000     0.625000000000     0.057966666667     0          
O        O      0.789700000000     0.670850000000     0.261066666667     0          
O        O      0.806100000000     0.500000000000     0.215733333333     0          
O        O      0.811700000000     0.670875000000     0.167533333333     0          
O        O      0.875000000000     0.691900000000     0.234033333333     0          
O        O      0.788300000000     0.625000000000     0.087400000000     0          
O        O      0.875000000000     0.625000000000     0.117533333333     0          
T        Si     0.820800000000     0.695950000000     0.219566666667     0          
T        Si     0.821450000000     0.625000000000     0.135033333333     0          
T        Si     0.760300000000     0.625000000000     0.275366666667     0          
O        O      0.960300000000     0.579150000000     0.261066666667     0          
O        O      0.943900000000     0.500000000000     0.215733333333     0          
O        O      0.938300000000     0.579125000000     0.167533333333     0          
O        O      0.875000000000     0.558100000000     0.234033333333     0          
O        O      0.961700000000     0.625000000000     0.087400000000     0          
T        Si     0.929200000000     0.554050000000     0.219566666667     0          
T        Si     0.928550000000     0.625000000000     0.135033333333     0          
T        Si     0.989700000000     0.625000000000     0.275366666667     0          
O        O      0.960300000000     0.670850000000     0.261066666667     0          
O        O      0.938300000000     0.670875000000     0.167533333333     0          
T        Si     0.929200000000     0.695950000000     0.219566666667     0          
O        O      0.789700000000     0.579150000000     0.261066666667     0          
O        O      0.811700000000     0.579125000000     0.167533333333     0          
T        Si     0.820800000000     0.554050000000     0.219566666667     0          
O        O      0.710300000000     0.579150000000     0.072266666667     0          
O        O      0.688300000000     0.579125000000     0.165800000000     0          
T        Si     0.679200000000     0.554050000000     0.113766666667     0          
O        O      0.539700000000     0.670850000000     0.072266666667     0          
O        O      0.561700000000     0.670875000000     0.165800000000     0          
T        Si     0.570800000000     0.695950000000     0.113766666667     0          
O        O      0.539700000000     0.579150000000     0.405600000000     0          
O        O      0.556100000000     0.500000000000     0.450933333333     0          
O        O      0.561700000000     0.579125000000     0.499133333333     0          
O        O      0.625000000000     0.558100000000     0.432633333333     0          
O        O      0.538300000000     0.625000000000     0.579266666667     0          
O        O      0.625000000000     0.625000000000     0.549133333333     0          
O        O      0.500000000000     0.625000000000     0.333333333333     0          
T        Si     0.570800000000     0.554050000000     0.447100000000     0          
T        Si     0.571450000000     0.625000000000     0.531633333333     0          
T        Si     0.510300000000     0.625000000000     0.391300000000     0          
O        O      0.710300000000     0.670850000000     0.405600000000     0          
O        O      0.693900000000     0.500000000000     0.450933333333     0          
O        O      0.688300000000     0.670875000000     0.499133333333     0          
O        O      0.625000000000     0.691900000000     0.432633333333     0          
O        O      0.711700000000     0.625000000000     0.579266666667     0          
O        O      0.750000000000     0.625000000000     0.333333333333     0          
T        Si     0.679200000000     0.695950000000     0.447100000000     0          
T        Si     0.678550000000     0.625000000000     0.531633333333     0          
T        Si     0.739700000000     0.625000000000     0.391300000000     0          
O        O      0.789700000000     0.670850000000     0.594400000000     0          
O        O      0.806100000000     0.500000000000     0.549066666667     0          
O        O      0.811700000000     0.670875000000     0.500866666667     0          
O        O      0.875000000000     0.691900000000     0.567366666667     0          
O        O      0.788300000000     0.625000000000     0.420733333333     0          
O        O      0.875000000000     0.625000000000     0.450866666667     0          
T        Si     0.820800000000     0.695950000000     0.552900000000     0          
T        Si     0.821450000000     0.625000000000     0.468366666667     0          
T        Si     0.760300000000     0.625000000000     0.608700000000     0          
O        O      0.960300000000     0.579150000000     0.594400000000     0          
O        O      0.943900000000     0.500000000000     0.549066666667     0          
O        O      0.938300000000     0.579125000000     0.500866666667     0          
O        O      0.875000000000     0.558100000000     0.567366666667     0          
O        O      0.961700000000     0.625000000000     0.420733333333     0          
T        Si     0.929200000000     0.554050000000     0.552900000000     0          
T        Si     0.928550000000     0.625000000000     0.468366666667     0          
T        Si     0.989700000000     0.625000000000     0.608700000000     0          
O        O      0.960300000000     0.670850000000     0.594400000000     0          
O        O      0.938300000000     0.670875000000     0.500866666667     0          
T        Si     0.929200000000     0.695950000000     0.552900000000     0          
O        O      0.789700000000     0.579150000000     0.594400000000     0          
O        O      0.811700000000     0.579125000000     0.500866666667     0          
T        Si     0.820800000000     0.554050000000     0.552900000000     0          
O        O      0.710300000000     0.579150000000     0.405600000000     0          
O        O      0.688300000000     0.579125000000     0.499133333333     0          
T        Si     0.679200000000     0.554050000000     0.447100000000     0          
O        O      0.539700000000     0.670850000000     0.405600000000     0          
O        O      0.561700000000     0.670875000000     0.499133333333     0          
T        Si     0.570800000000     0.695950000000     0.447100000000     0          
O        O      0.539700000000     0.579150000000     0.738933333333     0          
O        O      0.556100000000     0.500000000000     0.784266666667     0          
O        O      0.561700000000     0.579125000000     0.832466666667     0          
O        O      0.625000000000     0.558100000000     0.765966666667     0          
O        O      0.538300000000     0.625000000000     0.912600000000     0          
O        O      0.625000000000     0.625000000000     0.882466666667     0          
O        O      0.500000000000     0.625000000000     0.666666666667     0          
T        Si     0.570800000000     0.554050000000     0.780433333333     0          
T        Si     0.571450000000     0.625000000000     0.864966666667     0          
T        Si     0.510300000000     0.625000000000     0.724633333333     0          
O        O      0.710300000000     0.670850000000     0.738933333333     0          
O        O      0.693900000000     0.500000000000     0.784266666667     0          
O        O      0.688300000000     0.670875000000     0.832466666667     0          
O        O      0.625000000000     0.691900000000     0.765966666667     0          
O        O      0.711700000000     0.625000000000     0.912600000000     0          
O        O      0.750000000000     0.625000000000     0.666666666667     0          
T        Si     0.679200000000     0.695950000000     0.780433333333     0          
T        Si     0.678550000000     0.625000000000     0.864966666667     0          
T        Si     0.739700000000     0.625000000000     0.724633333333     0          
O        O      0.789700000000     0.670850000000     0.927733333333     0          
O        O      0.806100000000     0.500000000000     0.882400000000     0          
O        O      0.811700000000     0.670875000000     0.834200000000     0          
O        O      0.875000000000     0.691900000000     0.900700000000     0          
O        O      0.788300000000     0.625000000000     0.754066666667     0          
O        O      0.875000000000     0.625000000000     0.784200000000     0          
T        Si     0.820800000000     0.695950000000     0.886233333333     0          
T        Si     0.821450000000     0.625000000000     0.801700000000     0          
T        Si     0.760300000000     0.625000000000     0.942033333333     0          
O        O      0.960300000000     0.579150000000     0.927733333333     0          
O        O      0.943900000000     0.500000000000     0.882400000000     0          
O        O      0.938300000000     0.579125000000     0.834200000000     0          
O        O      0.875000000000     0.558100000000     0.900700000000     0          
O        O      0.961700000000     0.625000000000     0.754066666667     0          
T        Si     0.929200000000     0.554050000000     0.886233333333     0          
T        Si     0.928550000000     0.625000000000     0.801700000000     0          
T        Si     0.989700000000     0.625000000000     0.942033333333     0          
O        O      0.960300000000     0.670850000000     0.927733333333     0          
O        O      0.938300000000     0.670875000000     0.834200000000     0          
T        Si     0.929200000000     0.695950000000     0.886233333333     0          
O        O      0.789700000000     0.579150000000     0.927733333333     0          
O        O      0.811700000000     0.579125000000     0.834200000000     0          
T        Si     0.820800000000     0.554050000000     0.886233333333     0          
O        O      0.710300000000     0.579150000000     0.738933333333     0          
O        O      0.688300000000     0.579125000000     0.832466666667     0          
T        Si     0.679200000000     0.554050000000     0.780433333333     0          
O        O      0.539700000000     0.670850000000     0.738933333333     0          
O        O      0.561700000000     0.670875000000     0.832466666667     0          
T        Si     0.570800000000     0.695950000000     0.780433333333     0          
O        O      0.539700000000     0.829150000000     0.072266666667     0          
O        O      0.556100000000     0.750000000000     0.117600000000     0          
O        O      0.561700000000     0.829125000000     0.165800000000     0          
O        O      0.625000000000     0.808100000000     0.099300000000     0          
O        O      0.538300000000     0.875000000000     0.245933333333     0          
O        O      0.625000000000     0.875000000000     0.215800000000     0          
O        O      0.500000000000     0.875000000000     0.000000000000     0          
T        Si     0.570800000000     0.804050000000     0.113766666667     0          
T        Si     0.571450000000     0.875000000000     0.198300000000     0          
T        Si     0.510300000000     0.875000000000     0.057966666667     0          
O        O      0.710300000000     0.920850000000     0.072266666667     0          
O        O      0.693900000000     0.750000000000     0.117600000000     0          
O        O      0.688300000000     0.920875000000     0.165800000000     0          
O        O      0.625000000000     0.941900000000     0.099300000000     0          
O        O      0.711700000000     0.875000000000     0.245933333333     0          
O        O      0.750000000000     0.875000000000     0.000000000000     0          
T        Si     0.679200000000     0.945950000000     0.113766666667     0          
T        Si     0.678550000000     0.875000000000     0.198300000000     0          
T        Si     0.739700000000     0.875000000000     0.057966666667     0          
O        O      0.789700000000     0.920850000000     0.261066666667     0          
O        O      0.806100000000     0.750000000000     0.215733333333     0          
O        O      0.811700000000     0.920875000000     0.167533333333     0          
O        O      0.875000000000     0.941900000000     0.234033333333     0          
O        O      0.788300000000     0.875000000000     0.087400000000     0          
O        O      0.875000000000     0.875000000000     0.117533333333     0          
T        Si     0.820800000000     0.945950000000     0.219566666667     0          
T        Si     0.821450000000     0.875000000000     0.135033333333     0          
T        Si     0.760300000000     0.875000000000     0.275366666667     0          
O        O      0.960300000000     0.829150000000     0.261066666667     0          
O        O      0.943900000000     0.750000000000     0.215733333333     0          
O        O      0.938300000000     0.829125000000     0.167533333333     0          
O        O      0.875000000000     0.808100000000     0.234033333333     0          
O        O      0.961700000000     0.875000000000     0.087400000000     0          
T        Si     0.929200000000     0.804050000000     0.219566666667     0          
T        Si     0.928550000000     0.875000000000     0.135033333333     0          
T        Si     0.989700000000     0.875000000000     0.275366666667     0          
O        O      0.960300000000     0.920850000000     0.261066666667     0          
O        O      0.938300000000     0.920875000000     0.167533333333     0          
T        Si     0.929200000000     0.945950000000     0.219566666667     0          
O        O      0.789700000000     0.829150000000     0.261066666667     0          
O        O      0.811700000000     0.829125000000     0.167533333333     0          
T        Si     0.820800000000     0.804050000000     0.219566666667     0          
O        O      0.710300000000     0.829150000000     0.072266666667     0          
O        O      0.688300000000     0.829125000000     0.165800000000     0          
T        Si     0.679200000000     0.804050000000     0.113766666667     0          
O        O      0.539700000000     0.920850000000     0.072266666667     0          
O        O      0.561700000000     0.920875000000     0.165800000000     0          
T        Si     0.570800000000     0.945950000000     0.113766666667     0          
O        O      0.539700000000     0.829150000000     0.405600000000     0          
O        O      0.556100000000     0.750000000000     0.450933333333     0          
O        O      0.561700000000     0.829125000000     0.499133333333     0          
O        O      0.625000000000     0.808100000000     0.432633333333     0          
O        O      0.538300000000     0.875000000000     0.579266666667     0          
O        O      0.625000000000     0.875000000000     0.549133333333     0          
O        O      0.500000000000     0.875000000000     0.333333333333     0          
T        Si     0.570800000000     0.804050000000     0.447100000000     0          
T        Si     0.571450000000     0.875000000000     0.531633333333     0          
T        Si     0.510300000000     0.875000000000     0.391300000000     0          
O        O      0.710300000000     0.920850000000     0.405600000000     0          
O        O      0.693900000000     0.750000000000     0.450933333333     0          
O        O      0.688300000000     0.920875000000     0.499133333333     0          
O        O      0.625000000000     0.941900000000     0.432633333333     0          
O        O      0.711700000000     0.875000000000     0.579266666667     0          
O        O      0.750000000000     0.875000000000     0.333333333333     0          
T        Si     0.679200000000     0.945950000000     0.447100000000     0          
T        Si     0.678550000000     0.875000000000     0.531633333333     0          
T        Si     0.739700000000     0.875000000000     0.391300000000     0          
O        O      0.789700000000     0.920850000000     0.594400000000     0          
O        O      0.806100000000     0.750000000000     0.549066666667     0          
O        O      0.811700000000     0.920875000000     0.500866666667     0          
O        O      0.875000000000     0.941900000000     0.567366666667     0          
O        O      0.788300000000     0.875000000000     0.420733333333     0          
O        O      0.875000000000     0.875000000000     0.450866666667     0          
T        Si     0.820800000000     0.945950000000     0.552900000000     0          
T        Si     0.821450000000     0.875000000000     0.468366666667     0          
T        Si     0.760300000000     0.875000000000     0.608700000000     0          
O        O      0.960300000000     0.829150000000     0.594400000000     0          
O        O      0.943900000000     0.750000000000     0.549066666667     0          
O        O      0.938300000000     0.829125000000     0.500866666667     0          
O        O      0.875000000000     0.808100000000     0.567366666667     0          
O        O      0.961700000000     0.875000000000     0.420733333333     0          
T        Si     0.929200000000     0.804050000000     0.552900000000     0          
T        Si     0.928550000000     0.875000000000     0.468366666667     0          
T        Si     0.989700000000     0.875000000000     0.608700000000     0          
O        O      0.960300000000     0.920850000000     0.594400000000     0          
O        O      0.938300000000     0.920875000000     0.500866666667     0          
T        Si     0.929200000000     0.945950000000     0.552900000000     0          
O        O      0.789700000000     0.829150000000     0.594400000000     0          
O        O      0.811700000000     0.829125000000     0.500866666667     0          
T        Si     0.820800000000     0.804050000000     0.552900000000     0          
O        O      0.710300000000     0.829150000000     0.405600000000     0          
O        O      0.688300000000     0.829125000000     0.499133333333     0          
T        Si     0.679200000000     0.804050000000     0.447100000000     0          
O        O      0.539700000000     0.920850000000     0.405600000000     0          
O        O      0.561700000000     0.920875000000     0.499133333333     0          
T        Si     0.570800000000     0.945950000000     0.447100000000     0          
O        O      0.539700000000     0.829150000000     0.738933333333     0          
O        O      0.556100000000     0.750000000000     0.784266666667     0          
O        O      0.561700000000     0.829125000000     0.832466666667     0          
O        O      0.625000000000     0.808100000000     0.765966666667     0          
O        O      0.538300000000     0.875000000000     0.912600000000     0          
O        O      0.625000000000     0.875000000000     0.882466666667     0          
O        O      0.500000000000     0.875000000000     0.666666666667     0          
T        Si     0.570800000000     0.804050000000     0.780433333333     0          
T        Si     0.571450000000     0.875000000000     0.864966666667     0          
T        Si     0.510300000000     0.875000000000     0.724633333333     0          
O        O      0.710300000000     0.920850000000     0.738933333333     0          
O        O      0.693900000000     0.750000000000     0.784266666667     0          
O        O      0.688300000000     0.920875000000     0.832466666667     0          
O        O      0.625000000000     0.941900000000     0.765966666667     0          
O        O      0.711700000000     0.875000000000     0.912600000000     0          
O        O      0.750000000000     0.875000000000     0.666666666667     0          
T        Si     0.679200000000     0.945950000000     0.780433333333     0          
T        Si     0.678550000000     0.875000000000     0.864966666667     0          
T        Si     0.739700000000     0.875000000000     0.724633333333     0          
O        O      0.789700000000     0.920850000000     0.927733333333     0          
O        O      0.806100000000     0.750000000000     0.882400000000     0          
O        O      0.811700000000     0.920875000000     0.834200000000     0          
O        O      0.875000000000     0.941900000000     0.900700000000     0          
O        O      0.788300000000     0.875000000000     0.754066666667     0          
O        O      0.875000000000     0.875000000000     0.784200000000     0          
T        Si     0.820800000000     0.945950000000     0.886233333333     0          
T        Si     0.821450000000     0.875000000000     0.801700000000     0          
T        Si     0.760300000000     0.875000000000     0.942033333333     0          
O        O      0.960300000000     0.829150000000     0.927733333333     0          
O        O      0.943900000000     0.750000000000     0.882400000000     0          
O        O      0.938300000000     0.829125000000     0.834200000000     0          
O        O      0.875000000000     0.808100000000     0.900700000000     0          
O        O      0.961700000000     0.875000000000     0.754066666667     0          
T        Si     0.929200000000     0.804050000000     0.886233333333     0          
T        Si     0.928550000000     0.875000000000     0.801700000000     0          
T        Si     0.989700000000     0.875000000000     0.942033333333     0          
O        O      0.960300000000     0.920850000000     0.927733333333     0          
O        O      0.938300000000     0.920875000000     0.834200000000     0          
T        Si     0.929200000000     0.945950000000     0.886233333333     0          
O        O      0.789700000000     0.829150000000     0.927733333333     0          
O        O      0.811700000000     0.829125000000     0.834200000000     0          
T        Si     0.820800000000     0.804050000000     0.886233333333     0          
O        O      0.710300000000     0.829150000000     0.738933333333     0          
O        O      0.688300000000     0.829125000000     0.832466666667     0          
T        Si     0.679200000000     0.804050000000     0.780433333333     0          
O        O      0.539700000000     0.920850000000     0.738933333333     0          
O        O      0.561700000000     0.920875000000     0.832466666667     0          
T        Si     0.570800000000     0.945950000000     0.780433333333     0          


