data_zeolite

_audit_creation_method RASPA-1.0
_audit_creation_date 2021-6-7
_audit_author_name ''

_cell_length_a    29.838
_cell_length_b    29.838
_cell_length_c    29.838
_cell_angle_alpha 90
_cell_angle_beta  90
_cell_angle_gamma 90
_cell_volume      26565

_symmetry_cell_setting          cubic
_symmetry_space_group_name_Hall 'P 1'
_symmetry_space_group_name_H-M  'P 1'
_symmetry_Int_Tables_number     1

_symmetry_equiv_pos_as_xyz 'x,y,z'

loop_
_atom_site_label
_atom_site_type_symbol
_atom_site_fract_x
_atom_site_fract_y
_atom_site_fract_z
_atom_site_charge
O        O      0.167200000000     0.064900000000     0.167200000000     0          
O        O      0.137700000000     0.059650000000     0.250000000000     0          
T        Si     0.125000000000     0.051850000000     0.198150000000     0          
O        O      0.435100000000     0.167200000000     0.167200000000     0          
O        O      0.440350000000     0.137700000000     0.250000000000     0          
T        Si     0.448150000000     0.125000000000     0.198150000000     0          
O        O      0.332800000000     0.435100000000     0.167200000000     0          
O        O      0.362300000000     0.440350000000     0.250000000000     0          
T        Si     0.375000000000     0.448150000000     0.198150000000     0          
O        O      0.064900000000     0.332800000000     0.167200000000     0          
O        O      0.059650000000     0.362300000000     0.250000000000     0          
T        Si     0.051850000000     0.375000000000     0.198150000000     0          
O        O      0.167200000000     0.435100000000     0.332800000000     0          
O        O      0.137700000000     0.440350000000     0.250000000000     0          
T        Si     0.125000000000     0.448150000000     0.301850000000     0          
O        O      0.064900000000     0.167200000000     0.332800000000     0          
O        O      0.059650000000     0.137700000000     0.250000000000     0          
T        Si     0.051850000000     0.125000000000     0.301850000000     0          
O        O      0.332800000000     0.064900000000     0.332800000000     0          
O        O      0.362300000000     0.059650000000     0.250000000000     0          
T        Si     0.375000000000     0.051850000000     0.301850000000     0          
O        O      0.435100000000     0.332800000000     0.332800000000     0          
O        O      0.440350000000     0.362300000000     0.250000000000     0          
T        Si     0.448150000000     0.375000000000     0.301850000000     0          
O        O      0.167200000000     0.167200000000     0.064900000000     0          
O        O      0.250000000000     0.137700000000     0.059650000000     0          
T        Si     0.198150000000     0.125000000000     0.051850000000     0          
O        O      0.332800000000     0.167200000000     0.064900000000     0          
O        O      0.362300000000     0.250000000000     0.059650000000     0          
T        Si     0.375000000000     0.198150000000     0.051850000000     0          
O        O      0.332800000000     0.332800000000     0.064900000000     0          
O        O      0.250000000000     0.362300000000     0.059650000000     0          
T        Si     0.301850000000     0.375000000000     0.051850000000     0          
O        O      0.167200000000     0.332800000000     0.064900000000     0          
O        O      0.137700000000     0.250000000000     0.059650000000     0          
T        Si     0.125000000000     0.301850000000     0.051850000000     0          
O        O      0.167200000000     0.332800000000     0.435100000000     0          
O        O      0.250000000000     0.362300000000     0.440350000000     0          
T        Si     0.198150000000     0.375000000000     0.448150000000     0          
O        O      0.167200000000     0.167200000000     0.435100000000     0          
O        O      0.137700000000     0.250000000000     0.440350000000     0          
T        Si     0.125000000000     0.198150000000     0.448150000000     0          
O        O      0.332800000000     0.167200000000     0.435100000000     0          
O        O      0.250000000000     0.137700000000     0.440350000000     0          
T        Si     0.301850000000     0.125000000000     0.448150000000     0          
O        O      0.332800000000     0.332800000000     0.435100000000     0          
O        O      0.362300000000     0.250000000000     0.440350000000     0          
T        Si     0.375000000000     0.301850000000     0.448150000000     0          
O        O      0.064900000000     0.167200000000     0.167200000000     0          
O        O      0.059650000000     0.250000000000     0.137700000000     0          
T        Si     0.051850000000     0.198150000000     0.125000000000     0          
O        O      0.064900000000     0.332800000000     0.332800000000     0          
O        O      0.059650000000     0.250000000000     0.362300000000     0          
T        Si     0.051850000000     0.301850000000     0.375000000000     0          
O        O      0.167200000000     0.064900000000     0.332800000000     0          
O        O      0.250000000000     0.059650000000     0.362300000000     0          
T        Si     0.198150000000     0.051850000000     0.375000000000     0          
O        O      0.435100000000     0.167200000000     0.332800000000     0          
O        O      0.440350000000     0.250000000000     0.362300000000     0          
T        Si     0.448150000000     0.198150000000     0.375000000000     0          
O        O      0.332800000000     0.435100000000     0.332800000000     0          
O        O      0.250000000000     0.440350000000     0.362300000000     0          
T        Si     0.301850000000     0.448150000000     0.375000000000     0          
O        O      0.435100000000     0.332800000000     0.167200000000     0          
O        O      0.440350000000     0.250000000000     0.137700000000     0          
T        Si     0.448150000000     0.301850000000     0.125000000000     0          
O        O      0.167200000000     0.435100000000     0.167200000000     0          
O        O      0.250000000000     0.440350000000     0.137700000000     0          
T        Si     0.198150000000     0.448150000000     0.125000000000     0          
O        O      0.332800000000     0.064900000000     0.167200000000     0          
O        O      0.250000000000     0.059650000000     0.137700000000     0          
T        Si     0.301850000000     0.051850000000     0.125000000000     0          
T        Si     0.375000000000     0.448150000000     0.301850000000     0          
T        Si     0.051850000000     0.375000000000     0.301850000000     0          
T        Si     0.125000000000     0.051850000000     0.301850000000     0          
T        Si     0.448150000000     0.125000000000     0.301850000000     0          
T        Si     0.375000000000     0.051850000000     0.198150000000     0          
T        Si     0.448150000000     0.375000000000     0.198150000000     0          
T        Si     0.125000000000     0.448150000000     0.198150000000     0          
T        Si     0.051850000000     0.125000000000     0.198150000000     0          
T        Si     0.301850000000     0.375000000000     0.448150000000     0          
T        Si     0.125000000000     0.301850000000     0.448150000000     0          
T        Si     0.198150000000     0.125000000000     0.448150000000     0          
T        Si     0.375000000000     0.198150000000     0.448150000000     0          
T        Si     0.301850000000     0.125000000000     0.051850000000     0          
T        Si     0.375000000000     0.301850000000     0.051850000000     0          
T        Si     0.198150000000     0.375000000000     0.051850000000     0          
T        Si     0.125000000000     0.198150000000     0.051850000000     0          
T        Si     0.448150000000     0.301850000000     0.375000000000     0          
T        Si     0.448150000000     0.198150000000     0.125000000000     0          
T        Si     0.301850000000     0.448150000000     0.125000000000     0          
T        Si     0.051850000000     0.301850000000     0.125000000000     0          
T        Si     0.198150000000     0.051850000000     0.125000000000     0          
T        Si     0.051850000000     0.198150000000     0.375000000000     0          
T        Si     0.301850000000     0.051850000000     0.375000000000     0          
T        Si     0.198150000000     0.448150000000     0.375000000000     0          
O        O      0.417200000000     0.314900000000     0.417200000000     0          
O        O      0.387700000000     0.309650000000     0.000000000000     0          
O        O      0.185100000000     0.417200000000     0.417200000000     0          
O        O      0.190350000000     0.387700000000     0.000000000000     0          
O        O      0.082800000000     0.185100000000     0.417200000000     0          
O        O      0.112300000000     0.190350000000     0.000000000000     0          
O        O      0.314900000000     0.082800000000     0.417200000000     0          
O        O      0.309650000000     0.112300000000     0.000000000000     0          
O        O      0.417200000000     0.185100000000     0.082800000000     0          
O        O      0.387700000000     0.190350000000     0.000000000000     0          
O        O      0.314900000000     0.417200000000     0.082800000000     0          
O        O      0.309650000000     0.387700000000     0.000000000000     0          
O        O      0.082800000000     0.314900000000     0.082800000000     0          
O        O      0.112300000000     0.309650000000     0.000000000000     0          
O        O      0.185100000000     0.082800000000     0.082800000000     0          
O        O      0.190350000000     0.112300000000     0.000000000000     0          
O        O      0.417200000000     0.417200000000     0.314900000000     0          
O        O      0.000000000000     0.387700000000     0.309650000000     0          
O        O      0.082800000000     0.417200000000     0.314900000000     0          
O        O      0.112300000000     0.000000000000     0.309650000000     0          
O        O      0.082800000000     0.082800000000     0.314900000000     0          
O        O      0.000000000000     0.112300000000     0.309650000000     0          
O        O      0.417200000000     0.082800000000     0.314900000000     0          
O        O      0.387700000000     0.000000000000     0.309650000000     0          
O        O      0.417200000000     0.082800000000     0.185100000000     0          
O        O      0.000000000000     0.112300000000     0.190350000000     0          
O        O      0.417200000000     0.417200000000     0.185100000000     0          
O        O      0.387700000000     0.000000000000     0.190350000000     0          
O        O      0.082800000000     0.417200000000     0.185100000000     0          
O        O      0.000000000000     0.387700000000     0.190350000000     0          
O        O      0.082800000000     0.082800000000     0.185100000000     0          
O        O      0.112300000000     0.000000000000     0.190350000000     0          
O        O      0.314900000000     0.417200000000     0.417200000000     0          
O        O      0.309650000000     0.000000000000     0.387700000000     0          
O        O      0.314900000000     0.082800000000     0.082800000000     0          
O        O      0.309650000000     0.000000000000     0.112300000000     0          
O        O      0.417200000000     0.314900000000     0.082800000000     0          
O        O      0.000000000000     0.309650000000     0.112300000000     0          
O        O      0.185100000000     0.417200000000     0.082800000000     0          
O        O      0.190350000000     0.000000000000     0.112300000000     0          
O        O      0.082800000000     0.185100000000     0.082800000000     0          
O        O      0.000000000000     0.190350000000     0.112300000000     0          
O        O      0.185100000000     0.082800000000     0.417200000000     0          
O        O      0.190350000000     0.000000000000     0.387700000000     0          
O        O      0.417200000000     0.185100000000     0.417200000000     0          
O        O      0.000000000000     0.190350000000     0.387700000000     0          
O        O      0.082800000000     0.314900000000     0.417200000000     0          
O        O      0.000000000000     0.309650000000     0.387700000000     0          
O        O      0.167200000000     0.064900000000     0.667200000000     0          
O        O      0.137700000000     0.059650000000     0.750000000000     0          
T        Si     0.125000000000     0.051850000000     0.698150000000     0          
O        O      0.435100000000     0.167200000000     0.667200000000     0          
O        O      0.440350000000     0.137700000000     0.750000000000     0          
T        Si     0.448150000000     0.125000000000     0.698150000000     0          
O        O      0.332800000000     0.435100000000     0.667200000000     0          
O        O      0.362300000000     0.440350000000     0.750000000000     0          
T        Si     0.375000000000     0.448150000000     0.698150000000     0          
O        O      0.064900000000     0.332800000000     0.667200000000     0          
O        O      0.059650000000     0.362300000000     0.750000000000     0          
T        Si     0.051850000000     0.375000000000     0.698150000000     0          
O        O      0.167200000000     0.435100000000     0.832800000000     0          
O        O      0.137700000000     0.440350000000     0.750000000000     0          
T        Si     0.125000000000     0.448150000000     0.801850000000     0          
O        O      0.064900000000     0.167200000000     0.832800000000     0          
O        O      0.059650000000     0.137700000000     0.750000000000     0          
T        Si     0.051850000000     0.125000000000     0.801850000000     0          
O        O      0.332800000000     0.064900000000     0.832800000000     0          
O        O      0.362300000000     0.059650000000     0.750000000000     0          
T        Si     0.375000000000     0.051850000000     0.801850000000     0          
O        O      0.435100000000     0.332800000000     0.832800000000     0          
O        O      0.440350000000     0.362300000000     0.750000000000     0          
T        Si     0.448150000000     0.375000000000     0.801850000000     0          
O        O      0.167200000000     0.167200000000     0.564900000000     0          
O        O      0.250000000000     0.137700000000     0.559650000000     0          
T        Si     0.198150000000     0.125000000000     0.551850000000     0          
O        O      0.332800000000     0.167200000000     0.564900000000     0          
O        O      0.362300000000     0.250000000000     0.559650000000     0          
T        Si     0.375000000000     0.198150000000     0.551850000000     0          
O        O      0.332800000000     0.332800000000     0.564900000000     0          
O        O      0.250000000000     0.362300000000     0.559650000000     0          
T        Si     0.301850000000     0.375000000000     0.551850000000     0          
O        O      0.167200000000     0.332800000000     0.564900000000     0          
O        O      0.137700000000     0.250000000000     0.559650000000     0          
T        Si     0.125000000000     0.301850000000     0.551850000000     0          
O        O      0.167200000000     0.332800000000     0.935100000000     0          
O        O      0.250000000000     0.362300000000     0.940350000000     0          
T        Si     0.198150000000     0.375000000000     0.948150000000     0          
O        O      0.167200000000     0.167200000000     0.935100000000     0          
O        O      0.137700000000     0.250000000000     0.940350000000     0          
T        Si     0.125000000000     0.198150000000     0.948150000000     0          
O        O      0.332800000000     0.167200000000     0.935100000000     0          
O        O      0.250000000000     0.137700000000     0.940350000000     0          
T        Si     0.301850000000     0.125000000000     0.948150000000     0          
O        O      0.332800000000     0.332800000000     0.935100000000     0          
O        O      0.362300000000     0.250000000000     0.940350000000     0          
T        Si     0.375000000000     0.301850000000     0.948150000000     0          
O        O      0.064900000000     0.167200000000     0.667200000000     0          
O        O      0.059650000000     0.250000000000     0.637700000000     0          
T        Si     0.051850000000     0.198150000000     0.625000000000     0          
O        O      0.064900000000     0.332800000000     0.832800000000     0          
O        O      0.059650000000     0.250000000000     0.862300000000     0          
T        Si     0.051850000000     0.301850000000     0.875000000000     0          
O        O      0.167200000000     0.064900000000     0.832800000000     0          
O        O      0.250000000000     0.059650000000     0.862300000000     0          
T        Si     0.198150000000     0.051850000000     0.875000000000     0          
O        O      0.435100000000     0.167200000000     0.832800000000     0          
O        O      0.440350000000     0.250000000000     0.862300000000     0          
T        Si     0.448150000000     0.198150000000     0.875000000000     0          
O        O      0.332800000000     0.435100000000     0.832800000000     0          
O        O      0.250000000000     0.440350000000     0.862300000000     0          
T        Si     0.301850000000     0.448150000000     0.875000000000     0          
O        O      0.435100000000     0.332800000000     0.667200000000     0          
O        O      0.440350000000     0.250000000000     0.637700000000     0          
T        Si     0.448150000000     0.301850000000     0.625000000000     0          
O        O      0.167200000000     0.435100000000     0.667200000000     0          
O        O      0.250000000000     0.440350000000     0.637700000000     0          
T        Si     0.198150000000     0.448150000000     0.625000000000     0          
O        O      0.332800000000     0.064900000000     0.667200000000     0          
O        O      0.250000000000     0.059650000000     0.637700000000     0          
T        Si     0.301850000000     0.051850000000     0.625000000000     0          
T        Si     0.375000000000     0.448150000000     0.801850000000     0          
T        Si     0.051850000000     0.375000000000     0.801850000000     0          
T        Si     0.125000000000     0.051850000000     0.801850000000     0          
T        Si     0.448150000000     0.125000000000     0.801850000000     0          
T        Si     0.375000000000     0.051850000000     0.698150000000     0          
T        Si     0.448150000000     0.375000000000     0.698150000000     0          
T        Si     0.125000000000     0.448150000000     0.698150000000     0          
T        Si     0.051850000000     0.125000000000     0.698150000000     0          
T        Si     0.301850000000     0.375000000000     0.948150000000     0          
T        Si     0.125000000000     0.301850000000     0.948150000000     0          
T        Si     0.198150000000     0.125000000000     0.948150000000     0          
T        Si     0.375000000000     0.198150000000     0.948150000000     0          
T        Si     0.301850000000     0.125000000000     0.551850000000     0          
T        Si     0.375000000000     0.301850000000     0.551850000000     0          
T        Si     0.198150000000     0.375000000000     0.551850000000     0          
T        Si     0.125000000000     0.198150000000     0.551850000000     0          
T        Si     0.448150000000     0.301850000000     0.875000000000     0          
T        Si     0.448150000000     0.198150000000     0.625000000000     0          
T        Si     0.301850000000     0.448150000000     0.625000000000     0          
T        Si     0.051850000000     0.301850000000     0.625000000000     0          
T        Si     0.198150000000     0.051850000000     0.625000000000     0          
T        Si     0.051850000000     0.198150000000     0.875000000000     0          
T        Si     0.301850000000     0.051850000000     0.875000000000     0          
T        Si     0.198150000000     0.448150000000     0.875000000000     0          
O        O      0.417200000000     0.314900000000     0.917200000000     0          
O        O      0.387700000000     0.309650000000     0.500000000000     0          
O        O      0.185100000000     0.417200000000     0.917200000000     0          
O        O      0.190350000000     0.387700000000     0.500000000000     0          
O        O      0.082800000000     0.185100000000     0.917200000000     0          
O        O      0.112300000000     0.190350000000     0.500000000000     0          
O        O      0.314900000000     0.082800000000     0.917200000000     0          
O        O      0.309650000000     0.112300000000     0.500000000000     0          
O        O      0.417200000000     0.185100000000     0.582800000000     0          
O        O      0.387700000000     0.190350000000     0.500000000000     0          
O        O      0.314900000000     0.417200000000     0.582800000000     0          
O        O      0.309650000000     0.387700000000     0.500000000000     0          
O        O      0.082800000000     0.314900000000     0.582800000000     0          
O        O      0.112300000000     0.309650000000     0.500000000000     0          
O        O      0.185100000000     0.082800000000     0.582800000000     0          
O        O      0.190350000000     0.112300000000     0.500000000000     0          
O        O      0.417200000000     0.417200000000     0.814900000000     0          
O        O      0.000000000000     0.387700000000     0.809650000000     0          
O        O      0.082800000000     0.417200000000     0.814900000000     0          
O        O      0.112300000000     0.000000000000     0.809650000000     0          
O        O      0.082800000000     0.082800000000     0.814900000000     0          
O        O      0.000000000000     0.112300000000     0.809650000000     0          
O        O      0.417200000000     0.082800000000     0.814900000000     0          
O        O      0.387700000000     0.000000000000     0.809650000000     0          
O        O      0.417200000000     0.082800000000     0.685100000000     0          
O        O      0.000000000000     0.112300000000     0.690350000000     0          
O        O      0.417200000000     0.417200000000     0.685100000000     0          
O        O      0.387700000000     0.000000000000     0.690350000000     0          
O        O      0.082800000000     0.417200000000     0.685100000000     0          
O        O      0.000000000000     0.387700000000     0.690350000000     0          
O        O      0.082800000000     0.082800000000     0.685100000000     0          
O        O      0.112300000000     0.000000000000     0.690350000000     0          
O        O      0.314900000000     0.417200000000     0.917200000000     0          
O        O      0.309650000000     0.000000000000     0.887700000000     0          
O        O      0.314900000000     0.082800000000     0.582800000000     0          
O        O      0.309650000000     0.000000000000     0.612300000000     0          
O        O      0.417200000000     0.314900000000     0.582800000000     0          
O        O      0.000000000000     0.309650000000     0.612300000000     0          
O        O      0.185100000000     0.417200000000     0.582800000000     0          
O        O      0.190350000000     0.000000000000     0.612300000000     0          
O        O      0.082800000000     0.185100000000     0.582800000000     0          
O        O      0.000000000000     0.190350000000     0.612300000000     0          
O        O      0.185100000000     0.082800000000     0.917200000000     0          
O        O      0.190350000000     0.000000000000     0.887700000000     0          
O        O      0.417200000000     0.185100000000     0.917200000000     0          
O        O      0.000000000000     0.190350000000     0.887700000000     0          
O        O      0.082800000000     0.314900000000     0.917200000000     0          
O        O      0.000000000000     0.309650000000     0.887700000000     0          
O        O      0.167200000000     0.564900000000     0.167200000000     0          
O        O      0.137700000000     0.559650000000     0.250000000000     0          
T        Si     0.125000000000     0.551850000000     0.198150000000     0          
O        O      0.435100000000     0.667200000000     0.167200000000     0          
O        O      0.440350000000     0.637700000000     0.250000000000     0          
T        Si     0.448150000000     0.625000000000     0.198150000000     0          
O        O      0.332800000000     0.935100000000     0.167200000000     0          
O        O      0.362300000000     0.940350000000     0.250000000000     0          
T        Si     0.375000000000     0.948150000000     0.198150000000     0          
O        O      0.064900000000     0.832800000000     0.167200000000     0          
O        O      0.059650000000     0.862300000000     0.250000000000     0          
T        Si     0.051850000000     0.875000000000     0.198150000000     0          
O        O      0.167200000000     0.935100000000     0.332800000000     0          
O        O      0.137700000000     0.940350000000     0.250000000000     0          
T        Si     0.125000000000     0.948150000000     0.301850000000     0          
O        O      0.064900000000     0.667200000000     0.332800000000     0          
O        O      0.059650000000     0.637700000000     0.250000000000     0          
T        Si     0.051850000000     0.625000000000     0.301850000000     0          
O        O      0.332800000000     0.564900000000     0.332800000000     0          
O        O      0.362300000000     0.559650000000     0.250000000000     0          
T        Si     0.375000000000     0.551850000000     0.301850000000     0          
O        O      0.435100000000     0.832800000000     0.332800000000     0          
O        O      0.440350000000     0.862300000000     0.250000000000     0          
T        Si     0.448150000000     0.875000000000     0.301850000000     0          
O        O      0.167200000000     0.667200000000     0.064900000000     0          
O        O      0.250000000000     0.637700000000     0.059650000000     0          
T        Si     0.198150000000     0.625000000000     0.051850000000     0          
O        O      0.332800000000     0.667200000000     0.064900000000     0          
O        O      0.362300000000     0.750000000000     0.059650000000     0          
T        Si     0.375000000000     0.698150000000     0.051850000000     0          
O        O      0.332800000000     0.832800000000     0.064900000000     0          
O        O      0.250000000000     0.862300000000     0.059650000000     0          
T        Si     0.301850000000     0.875000000000     0.051850000000     0          
O        O      0.167200000000     0.832800000000     0.064900000000     0          
O        O      0.137700000000     0.750000000000     0.059650000000     0          
T        Si     0.125000000000     0.801850000000     0.051850000000     0          
O        O      0.167200000000     0.832800000000     0.435100000000     0          
O        O      0.250000000000     0.862300000000     0.440350000000     0          
T        Si     0.198150000000     0.875000000000     0.448150000000     0          
O        O      0.167200000000     0.667200000000     0.435100000000     0          
O        O      0.137700000000     0.750000000000     0.440350000000     0          
T        Si     0.125000000000     0.698150000000     0.448150000000     0          
O        O      0.332800000000     0.667200000000     0.435100000000     0          
O        O      0.250000000000     0.637700000000     0.440350000000     0          
T        Si     0.301850000000     0.625000000000     0.448150000000     0          
O        O      0.332800000000     0.832800000000     0.435100000000     0          
O        O      0.362300000000     0.750000000000     0.440350000000     0          
T        Si     0.375000000000     0.801850000000     0.448150000000     0          
O        O      0.064900000000     0.667200000000     0.167200000000     0          
O        O      0.059650000000     0.750000000000     0.137700000000     0          
T        Si     0.051850000000     0.698150000000     0.125000000000     0          
O        O      0.064900000000     0.832800000000     0.332800000000     0          
O        O      0.059650000000     0.750000000000     0.362300000000     0          
T        Si     0.051850000000     0.801850000000     0.375000000000     0          
O        O      0.167200000000     0.564900000000     0.332800000000     0          
O        O      0.250000000000     0.559650000000     0.362300000000     0          
T        Si     0.198150000000     0.551850000000     0.375000000000     0          
O        O      0.435100000000     0.667200000000     0.332800000000     0          
O        O      0.440350000000     0.750000000000     0.362300000000     0          
T        Si     0.448150000000     0.698150000000     0.375000000000     0          
O        O      0.332800000000     0.935100000000     0.332800000000     0          
O        O      0.250000000000     0.940350000000     0.362300000000     0          
T        Si     0.301850000000     0.948150000000     0.375000000000     0          
O        O      0.435100000000     0.832800000000     0.167200000000     0          
O        O      0.440350000000     0.750000000000     0.137700000000     0          
T        Si     0.448150000000     0.801850000000     0.125000000000     0          
O        O      0.167200000000     0.935100000000     0.167200000000     0          
O        O      0.250000000000     0.940350000000     0.137700000000     0          
T        Si     0.198150000000     0.948150000000     0.125000000000     0          
O        O      0.332800000000     0.564900000000     0.167200000000     0          
O        O      0.250000000000     0.559650000000     0.137700000000     0          
T        Si     0.301850000000     0.551850000000     0.125000000000     0          
T        Si     0.375000000000     0.948150000000     0.301850000000     0          
T        Si     0.051850000000     0.875000000000     0.301850000000     0          
T        Si     0.125000000000     0.551850000000     0.301850000000     0          
T        Si     0.448150000000     0.625000000000     0.301850000000     0          
T        Si     0.375000000000     0.551850000000     0.198150000000     0          
T        Si     0.448150000000     0.875000000000     0.198150000000     0          
T        Si     0.125000000000     0.948150000000     0.198150000000     0          
T        Si     0.051850000000     0.625000000000     0.198150000000     0          
T        Si     0.301850000000     0.875000000000     0.448150000000     0          
T        Si     0.125000000000     0.801850000000     0.448150000000     0          
T        Si     0.198150000000     0.625000000000     0.448150000000     0          
T        Si     0.375000000000     0.698150000000     0.448150000000     0          
T        Si     0.301850000000     0.625000000000     0.051850000000     0          
T        Si     0.375000000000     0.801850000000     0.051850000000     0          
T        Si     0.198150000000     0.875000000000     0.051850000000     0          
T        Si     0.125000000000     0.698150000000     0.051850000000     0          
T        Si     0.448150000000     0.801850000000     0.375000000000     0          
T        Si     0.448150000000     0.698150000000     0.125000000000     0          
T        Si     0.301850000000     0.948150000000     0.125000000000     0          
T        Si     0.051850000000     0.801850000000     0.125000000000     0          
T        Si     0.198150000000     0.551850000000     0.125000000000     0          
T        Si     0.051850000000     0.698150000000     0.375000000000     0          
T        Si     0.301850000000     0.551850000000     0.375000000000     0          
T        Si     0.198150000000     0.948150000000     0.375000000000     0          
O        O      0.417200000000     0.814900000000     0.417200000000     0          
O        O      0.387700000000     0.809650000000     0.000000000000     0          
O        O      0.185100000000     0.917200000000     0.417200000000     0          
O        O      0.190350000000     0.887700000000     0.000000000000     0          
O        O      0.082800000000     0.685100000000     0.417200000000     0          
O        O      0.112300000000     0.690350000000     0.000000000000     0          
O        O      0.314900000000     0.582800000000     0.417200000000     0          
O        O      0.309650000000     0.612300000000     0.000000000000     0          
O        O      0.417200000000     0.685100000000     0.082800000000     0          
O        O      0.387700000000     0.690350000000     0.000000000000     0          
O        O      0.314900000000     0.917200000000     0.082800000000     0          
O        O      0.309650000000     0.887700000000     0.000000000000     0          
O        O      0.082800000000     0.814900000000     0.082800000000     0          
O        O      0.112300000000     0.809650000000     0.000000000000     0          
O        O      0.185100000000     0.582800000000     0.082800000000     0          
O        O      0.190350000000     0.612300000000     0.000000000000     0          
O        O      0.417200000000     0.917200000000     0.314900000000     0          
O        O      0.000000000000     0.887700000000     0.309650000000     0          
O        O      0.082800000000     0.917200000000     0.314900000000     0          
O        O      0.112300000000     0.500000000000     0.309650000000     0          
O        O      0.082800000000     0.582800000000     0.314900000000     0          
O        O      0.000000000000     0.612300000000     0.309650000000     0          
O        O      0.417200000000     0.582800000000     0.314900000000     0          
O        O      0.387700000000     0.500000000000     0.309650000000     0          
O        O      0.417200000000     0.582800000000     0.185100000000     0          
O        O      0.000000000000     0.612300000000     0.190350000000     0          
O        O      0.417200000000     0.917200000000     0.185100000000     0          
O        O      0.387700000000     0.500000000000     0.190350000000     0          
O        O      0.082800000000     0.917200000000     0.185100000000     0          
O        O      0.000000000000     0.887700000000     0.190350000000     0          
O        O      0.082800000000     0.582800000000     0.185100000000     0          
O        O      0.112300000000     0.500000000000     0.190350000000     0          
O        O      0.314900000000     0.917200000000     0.417200000000     0          
O        O      0.309650000000     0.500000000000     0.387700000000     0          
O        O      0.314900000000     0.582800000000     0.082800000000     0          
O        O      0.309650000000     0.500000000000     0.112300000000     0          
O        O      0.417200000000     0.814900000000     0.082800000000     0          
O        O      0.000000000000     0.809650000000     0.112300000000     0          
O        O      0.185100000000     0.917200000000     0.082800000000     0          
O        O      0.190350000000     0.500000000000     0.112300000000     0          
O        O      0.082800000000     0.685100000000     0.082800000000     0          
O        O      0.000000000000     0.690350000000     0.112300000000     0          
O        O      0.185100000000     0.582800000000     0.417200000000     0          
O        O      0.190350000000     0.500000000000     0.387700000000     0          
O        O      0.417200000000     0.685100000000     0.417200000000     0          
O        O      0.000000000000     0.690350000000     0.387700000000     0          
O        O      0.082800000000     0.814900000000     0.417200000000     0          
O        O      0.000000000000     0.809650000000     0.387700000000     0          
O        O      0.167200000000     0.564900000000     0.667200000000     0          
O        O      0.137700000000     0.559650000000     0.750000000000     0          
T        Si     0.125000000000     0.551850000000     0.698150000000     0          
O        O      0.435100000000     0.667200000000     0.667200000000     0          
O        O      0.440350000000     0.637700000000     0.750000000000     0          
T        Si     0.448150000000     0.625000000000     0.698150000000     0          
O        O      0.332800000000     0.935100000000     0.667200000000     0          
O        O      0.362300000000     0.940350000000     0.750000000000     0          
T        Si     0.375000000000     0.948150000000     0.698150000000     0          
O        O      0.064900000000     0.832800000000     0.667200000000     0          
O        O      0.059650000000     0.862300000000     0.750000000000     0          
T        Si     0.051850000000     0.875000000000     0.698150000000     0          
O        O      0.167200000000     0.935100000000     0.832800000000     0          
O        O      0.137700000000     0.940350000000     0.750000000000     0          
T        Si     0.125000000000     0.948150000000     0.801850000000     0          
O        O      0.064900000000     0.667200000000     0.832800000000     0          
O        O      0.059650000000     0.637700000000     0.750000000000     0          
T        Si     0.051850000000     0.625000000000     0.801850000000     0          
O        O      0.332800000000     0.564900000000     0.832800000000     0          
O        O      0.362300000000     0.559650000000     0.750000000000     0          
T        Si     0.375000000000     0.551850000000     0.801850000000     0          
O        O      0.435100000000     0.832800000000     0.832800000000     0          
O        O      0.440350000000     0.862300000000     0.750000000000     0          
T        Si     0.448150000000     0.875000000000     0.801850000000     0          
O        O      0.167200000000     0.667200000000     0.564900000000     0          
O        O      0.250000000000     0.637700000000     0.559650000000     0          
T        Si     0.198150000000     0.625000000000     0.551850000000     0          
O        O      0.332800000000     0.667200000000     0.564900000000     0          
O        O      0.362300000000     0.750000000000     0.559650000000     0          
T        Si     0.375000000000     0.698150000000     0.551850000000     0          
O        O      0.332800000000     0.832800000000     0.564900000000     0          
O        O      0.250000000000     0.862300000000     0.559650000000     0          
T        Si     0.301850000000     0.875000000000     0.551850000000     0          
O        O      0.167200000000     0.832800000000     0.564900000000     0          
O        O      0.137700000000     0.750000000000     0.559650000000     0          
T        Si     0.125000000000     0.801850000000     0.551850000000     0          
O        O      0.167200000000     0.832800000000     0.935100000000     0          
O        O      0.250000000000     0.862300000000     0.940350000000     0          
T        Si     0.198150000000     0.875000000000     0.948150000000     0          
O        O      0.167200000000     0.667200000000     0.935100000000     0          
O        O      0.137700000000     0.750000000000     0.940350000000     0          
T        Si     0.125000000000     0.698150000000     0.948150000000     0          
O        O      0.332800000000     0.667200000000     0.935100000000     0          
O        O      0.250000000000     0.637700000000     0.940350000000     0          
T        Si     0.301850000000     0.625000000000     0.948150000000     0          
O        O      0.332800000000     0.832800000000     0.935100000000     0          
O        O      0.362300000000     0.750000000000     0.940350000000     0          
T        Si     0.375000000000     0.801850000000     0.948150000000     0          
O        O      0.064900000000     0.667200000000     0.667200000000     0          
O        O      0.059650000000     0.750000000000     0.637700000000     0          
T        Si     0.051850000000     0.698150000000     0.625000000000     0          
O        O      0.064900000000     0.832800000000     0.832800000000     0          
O        O      0.059650000000     0.750000000000     0.862300000000     0          
T        Si     0.051850000000     0.801850000000     0.875000000000     0          
O        O      0.167200000000     0.564900000000     0.832800000000     0          
O        O      0.250000000000     0.559650000000     0.862300000000     0          
T        Si     0.198150000000     0.551850000000     0.875000000000     0          
O        O      0.435100000000     0.667200000000     0.832800000000     0          
O        O      0.440350000000     0.750000000000     0.862300000000     0          
T        Si     0.448150000000     0.698150000000     0.875000000000     0          
O        O      0.332800000000     0.935100000000     0.832800000000     0          
O        O      0.250000000000     0.940350000000     0.862300000000     0          
T        Si     0.301850000000     0.948150000000     0.875000000000     0          
O        O      0.435100000000     0.832800000000     0.667200000000     0          
O        O      0.440350000000     0.750000000000     0.637700000000     0          
T        Si     0.448150000000     0.801850000000     0.625000000000     0          
O        O      0.167200000000     0.935100000000     0.667200000000     0          
O        O      0.250000000000     0.940350000000     0.637700000000     0          
T        Si     0.198150000000     0.948150000000     0.625000000000     0          
O        O      0.332800000000     0.564900000000     0.667200000000     0          
O        O      0.250000000000     0.559650000000     0.637700000000     0          
T        Si     0.301850000000     0.551850000000     0.625000000000     0          
T        Si     0.375000000000     0.948150000000     0.801850000000     0          
T        Si     0.051850000000     0.875000000000     0.801850000000     0          
T        Si     0.125000000000     0.551850000000     0.801850000000     0          
T        Si     0.448150000000     0.625000000000     0.801850000000     0          
T        Si     0.375000000000     0.551850000000     0.698150000000     0          
T        Si     0.448150000000     0.875000000000     0.698150000000     0          
T        Si     0.125000000000     0.948150000000     0.698150000000     0          
T        Si     0.051850000000     0.625000000000     0.698150000000     0          
T        Si     0.301850000000     0.875000000000     0.948150000000     0          
T        Si     0.125000000000     0.801850000000     0.948150000000     0          
T        Si     0.198150000000     0.625000000000     0.948150000000     0          
T        Si     0.375000000000     0.698150000000     0.948150000000     0          
T        Si     0.301850000000     0.625000000000     0.551850000000     0          
T        Si     0.375000000000     0.801850000000     0.551850000000     0          
T        Si     0.198150000000     0.875000000000     0.551850000000     0          
T        Si     0.125000000000     0.698150000000     0.551850000000     0          
T        Si     0.448150000000     0.801850000000     0.875000000000     0          
T        Si     0.448150000000     0.698150000000     0.625000000000     0          
T        Si     0.301850000000     0.948150000000     0.625000000000     0          
T        Si     0.051850000000     0.801850000000     0.625000000000     0          
T        Si     0.198150000000     0.551850000000     0.625000000000     0          
T        Si     0.051850000000     0.698150000000     0.875000000000     0          
T        Si     0.301850000000     0.551850000000     0.875000000000     0          
T        Si     0.198150000000     0.948150000000     0.875000000000     0          
O        O      0.417200000000     0.814900000000     0.917200000000     0          
O        O      0.387700000000     0.809650000000     0.500000000000     0          
O        O      0.185100000000     0.917200000000     0.917200000000     0          
O        O      0.190350000000     0.887700000000     0.500000000000     0          
O        O      0.082800000000     0.685100000000     0.917200000000     0          
O        O      0.112300000000     0.690350000000     0.500000000000     0          
O        O      0.314900000000     0.582800000000     0.917200000000     0          
O        O      0.309650000000     0.612300000000     0.500000000000     0          
O        O      0.417200000000     0.685100000000     0.582800000000     0          
O        O      0.387700000000     0.690350000000     0.500000000000     0          
O        O      0.314900000000     0.917200000000     0.582800000000     0          
O        O      0.309650000000     0.887700000000     0.500000000000     0          
O        O      0.082800000000     0.814900000000     0.582800000000     0          
O        O      0.112300000000     0.809650000000     0.500000000000     0          
O        O      0.185100000000     0.582800000000     0.582800000000     0          
O        O      0.190350000000     0.612300000000     0.500000000000     0          
O        O      0.417200000000     0.917200000000     0.814900000000     0          
O        O      0.000000000000     0.887700000000     0.809650000000     0          
O        O      0.082800000000     0.917200000000     0.814900000000     0          
O        O      0.112300000000     0.500000000000     0.809650000000     0          
O        O      0.082800000000     0.582800000000     0.814900000000     0          
O        O      0.000000000000     0.612300000000     0.809650000000     0          
O        O      0.417200000000     0.582800000000     0.814900000000     0          
O        O      0.387700000000     0.500000000000     0.809650000000     0          
O        O      0.417200000000     0.582800000000     0.685100000000     0          
O        O      0.000000000000     0.612300000000     0.690350000000     0          
O        O      0.417200000000     0.917200000000     0.685100000000     0          
O        O      0.387700000000     0.500000000000     0.690350000000     0          
O        O      0.082800000000     0.917200000000     0.685100000000     0          
O        O      0.000000000000     0.887700000000     0.690350000000     0          
O        O      0.082800000000     0.582800000000     0.685100000000     0          
O        O      0.112300000000     0.500000000000     0.690350000000     0          
O        O      0.314900000000     0.917200000000     0.917200000000     0          
O        O      0.309650000000     0.500000000000     0.887700000000     0          
O        O      0.314900000000     0.582800000000     0.582800000000     0          
O        O      0.309650000000     0.500000000000     0.612300000000     0          
O        O      0.417200000000     0.814900000000     0.582800000000     0          
O        O      0.000000000000     0.809650000000     0.612300000000     0          
O        O      0.185100000000     0.917200000000     0.582800000000     0          
O        O      0.190350000000     0.500000000000     0.612300000000     0          
O        O      0.082800000000     0.685100000000     0.582800000000     0          
O        O      0.000000000000     0.690350000000     0.612300000000     0          
O        O      0.185100000000     0.582800000000     0.917200000000     0          
O        O      0.190350000000     0.500000000000     0.887700000000     0          
O        O      0.417200000000     0.685100000000     0.917200000000     0          
O        O      0.000000000000     0.690350000000     0.887700000000     0          
O        O      0.082800000000     0.814900000000     0.917200000000     0          
O        O      0.000000000000     0.809650000000     0.887700000000     0          
O        O      0.667200000000     0.064900000000     0.167200000000     0          
O        O      0.637700000000     0.059650000000     0.250000000000     0          
T        Si     0.625000000000     0.051850000000     0.198150000000     0          
O        O      0.935100000000     0.167200000000     0.167200000000     0          
O        O      0.940350000000     0.137700000000     0.250000000000     0          
T        Si     0.948150000000     0.125000000000     0.198150000000     0          
O        O      0.832800000000     0.435100000000     0.167200000000     0          
O        O      0.862300000000     0.440350000000     0.250000000000     0          
T        Si     0.875000000000     0.448150000000     0.198150000000     0          
O        O      0.564900000000     0.332800000000     0.167200000000     0          
O        O      0.559650000000     0.362300000000     0.250000000000     0          
T        Si     0.551850000000     0.375000000000     0.198150000000     0          
O        O      0.667200000000     0.435100000000     0.332800000000     0          
O        O      0.637700000000     0.440350000000     0.250000000000     0          
T        Si     0.625000000000     0.448150000000     0.301850000000     0          
O        O      0.564900000000     0.167200000000     0.332800000000     0          
O        O      0.559650000000     0.137700000000     0.250000000000     0          
T        Si     0.551850000000     0.125000000000     0.301850000000     0          
O        O      0.832800000000     0.064900000000     0.332800000000     0          
O        O      0.862300000000     0.059650000000     0.250000000000     0          
T        Si     0.875000000000     0.051850000000     0.301850000000     0          
O        O      0.935100000000     0.332800000000     0.332800000000     0          
O        O      0.940350000000     0.362300000000     0.250000000000     0          
T        Si     0.948150000000     0.375000000000     0.301850000000     0          
O        O      0.667200000000     0.167200000000     0.064900000000     0          
O        O      0.750000000000     0.137700000000     0.059650000000     0          
T        Si     0.698150000000     0.125000000000     0.051850000000     0          
O        O      0.832800000000     0.167200000000     0.064900000000     0          
O        O      0.862300000000     0.250000000000     0.059650000000     0          
T        Si     0.875000000000     0.198150000000     0.051850000000     0          
O        O      0.832800000000     0.332800000000     0.064900000000     0          
O        O      0.750000000000     0.362300000000     0.059650000000     0          
T        Si     0.801850000000     0.375000000000     0.051850000000     0          
O        O      0.667200000000     0.332800000000     0.064900000000     0          
O        O      0.637700000000     0.250000000000     0.059650000000     0          
T        Si     0.625000000000     0.301850000000     0.051850000000     0          
O        O      0.667200000000     0.332800000000     0.435100000000     0          
O        O      0.750000000000     0.362300000000     0.440350000000     0          
T        Si     0.698150000000     0.375000000000     0.448150000000     0          
O        O      0.667200000000     0.167200000000     0.435100000000     0          
O        O      0.637700000000     0.250000000000     0.440350000000     0          
T        Si     0.625000000000     0.198150000000     0.448150000000     0          
O        O      0.832800000000     0.167200000000     0.435100000000     0          
O        O      0.750000000000     0.137700000000     0.440350000000     0          
T        Si     0.801850000000     0.125000000000     0.448150000000     0          
O        O      0.832800000000     0.332800000000     0.435100000000     0          
O        O      0.862300000000     0.250000000000     0.440350000000     0          
T        Si     0.875000000000     0.301850000000     0.448150000000     0          
O        O      0.564900000000     0.167200000000     0.167200000000     0          
O        O      0.559650000000     0.250000000000     0.137700000000     0          
T        Si     0.551850000000     0.198150000000     0.125000000000     0          
O        O      0.564900000000     0.332800000000     0.332800000000     0          
O        O      0.559650000000     0.250000000000     0.362300000000     0          
T        Si     0.551850000000     0.301850000000     0.375000000000     0          
O        O      0.667200000000     0.064900000000     0.332800000000     0          
O        O      0.750000000000     0.059650000000     0.362300000000     0          
T        Si     0.698150000000     0.051850000000     0.375000000000     0          
O        O      0.935100000000     0.167200000000     0.332800000000     0          
O        O      0.940350000000     0.250000000000     0.362300000000     0          
T        Si     0.948150000000     0.198150000000     0.375000000000     0          
O        O      0.832800000000     0.435100000000     0.332800000000     0          
O        O      0.750000000000     0.440350000000     0.362300000000     0          
T        Si     0.801850000000     0.448150000000     0.375000000000     0          
O        O      0.935100000000     0.332800000000     0.167200000000     0          
O        O      0.940350000000     0.250000000000     0.137700000000     0          
T        Si     0.948150000000     0.301850000000     0.125000000000     0          
O        O      0.667200000000     0.435100000000     0.167200000000     0          
O        O      0.750000000000     0.440350000000     0.137700000000     0          
T        Si     0.698150000000     0.448150000000     0.125000000000     0          
O        O      0.832800000000     0.064900000000     0.167200000000     0          
O        O      0.750000000000     0.059650000000     0.137700000000     0          
T        Si     0.801850000000     0.051850000000     0.125000000000     0          
T        Si     0.875000000000     0.448150000000     0.301850000000     0          
T        Si     0.551850000000     0.375000000000     0.301850000000     0          
T        Si     0.625000000000     0.051850000000     0.301850000000     0          
T        Si     0.948150000000     0.125000000000     0.301850000000     0          
T        Si     0.875000000000     0.051850000000     0.198150000000     0          
T        Si     0.948150000000     0.375000000000     0.198150000000     0          
T        Si     0.625000000000     0.448150000000     0.198150000000     0          
T        Si     0.551850000000     0.125000000000     0.198150000000     0          
T        Si     0.801850000000     0.375000000000     0.448150000000     0          
T        Si     0.625000000000     0.301850000000     0.448150000000     0          
T        Si     0.698150000000     0.125000000000     0.448150000000     0          
T        Si     0.875000000000     0.198150000000     0.448150000000     0          
T        Si     0.801850000000     0.125000000000     0.051850000000     0          
T        Si     0.875000000000     0.301850000000     0.051850000000     0          
T        Si     0.698150000000     0.375000000000     0.051850000000     0          
T        Si     0.625000000000     0.198150000000     0.051850000000     0          
T        Si     0.948150000000     0.301850000000     0.375000000000     0          
T        Si     0.948150000000     0.198150000000     0.125000000000     0          
T        Si     0.801850000000     0.448150000000     0.125000000000     0          
T        Si     0.551850000000     0.301850000000     0.125000000000     0          
T        Si     0.698150000000     0.051850000000     0.125000000000     0          
T        Si     0.551850000000     0.198150000000     0.375000000000     0          
T        Si     0.801850000000     0.051850000000     0.375000000000     0          
T        Si     0.698150000000     0.448150000000     0.375000000000     0          
O        O      0.917200000000     0.314900000000     0.417200000000     0          
O        O      0.887700000000     0.309650000000     0.000000000000     0          
O        O      0.685100000000     0.417200000000     0.417200000000     0          
O        O      0.690350000000     0.387700000000     0.000000000000     0          
O        O      0.582800000000     0.185100000000     0.417200000000     0          
O        O      0.612300000000     0.190350000000     0.000000000000     0          
O        O      0.814900000000     0.082800000000     0.417200000000     0          
O        O      0.809650000000     0.112300000000     0.000000000000     0          
O        O      0.917200000000     0.185100000000     0.082800000000     0          
O        O      0.887700000000     0.190350000000     0.000000000000     0          
O        O      0.814900000000     0.417200000000     0.082800000000     0          
O        O      0.809650000000     0.387700000000     0.000000000000     0          
O        O      0.582800000000     0.314900000000     0.082800000000     0          
O        O      0.612300000000     0.309650000000     0.000000000000     0          
O        O      0.685100000000     0.082800000000     0.082800000000     0          
O        O      0.690350000000     0.112300000000     0.000000000000     0          
O        O      0.917200000000     0.417200000000     0.314900000000     0          
O        O      0.500000000000     0.387700000000     0.309650000000     0          
O        O      0.582800000000     0.417200000000     0.314900000000     0          
O        O      0.612300000000     0.000000000000     0.309650000000     0          
O        O      0.582800000000     0.082800000000     0.314900000000     0          
O        O      0.500000000000     0.112300000000     0.309650000000     0          
O        O      0.917200000000     0.082800000000     0.314900000000     0          
O        O      0.887700000000     0.000000000000     0.309650000000     0          
O        O      0.917200000000     0.082800000000     0.185100000000     0          
O        O      0.500000000000     0.112300000000     0.190350000000     0          
O        O      0.917200000000     0.417200000000     0.185100000000     0          
O        O      0.887700000000     0.000000000000     0.190350000000     0          
O        O      0.582800000000     0.417200000000     0.185100000000     0          
O        O      0.500000000000     0.387700000000     0.190350000000     0          
O        O      0.582800000000     0.082800000000     0.185100000000     0          
O        O      0.612300000000     0.000000000000     0.190350000000     0          
O        O      0.814900000000     0.417200000000     0.417200000000     0          
O        O      0.809650000000     0.000000000000     0.387700000000     0          
O        O      0.814900000000     0.082800000000     0.082800000000     0          
O        O      0.809650000000     0.000000000000     0.112300000000     0          
O        O      0.917200000000     0.314900000000     0.082800000000     0          
O        O      0.500000000000     0.309650000000     0.112300000000     0          
O        O      0.685100000000     0.417200000000     0.082800000000     0          
O        O      0.690350000000     0.000000000000     0.112300000000     0          
O        O      0.582800000000     0.185100000000     0.082800000000     0          
O        O      0.500000000000     0.190350000000     0.112300000000     0          
O        O      0.685100000000     0.082800000000     0.417200000000     0          
O        O      0.690350000000     0.000000000000     0.387700000000     0          
O        O      0.917200000000     0.185100000000     0.417200000000     0          
O        O      0.500000000000     0.190350000000     0.387700000000     0          
O        O      0.582800000000     0.314900000000     0.417200000000     0          
O        O      0.500000000000     0.309650000000     0.387700000000     0          
O        O      0.667200000000     0.064900000000     0.667200000000     0          
O        O      0.637700000000     0.059650000000     0.750000000000     0          
T        Si     0.625000000000     0.051850000000     0.698150000000     0          
O        O      0.935100000000     0.167200000000     0.667200000000     0          
O        O      0.940350000000     0.137700000000     0.750000000000     0          
T        Si     0.948150000000     0.125000000000     0.698150000000     0          
O        O      0.832800000000     0.435100000000     0.667200000000     0          
O        O      0.862300000000     0.440350000000     0.750000000000     0          
T        Si     0.875000000000     0.448150000000     0.698150000000     0          
O        O      0.564900000000     0.332800000000     0.667200000000     0          
O        O      0.559650000000     0.362300000000     0.750000000000     0          
T        Si     0.551850000000     0.375000000000     0.698150000000     0          
O        O      0.667200000000     0.435100000000     0.832800000000     0          
O        O      0.637700000000     0.440350000000     0.750000000000     0          
T        Si     0.625000000000     0.448150000000     0.801850000000     0          
O        O      0.564900000000     0.167200000000     0.832800000000     0          
O        O      0.559650000000     0.137700000000     0.750000000000     0          
T        Si     0.551850000000     0.125000000000     0.801850000000     0          
O        O      0.832800000000     0.064900000000     0.832800000000     0          
O        O      0.862300000000     0.059650000000     0.750000000000     0          
T        Si     0.875000000000     0.051850000000     0.801850000000     0          
O        O      0.935100000000     0.332800000000     0.832800000000     0          
O        O      0.940350000000     0.362300000000     0.750000000000     0          
T        Si     0.948150000000     0.375000000000     0.801850000000     0          
O        O      0.667200000000     0.167200000000     0.564900000000     0          
O        O      0.750000000000     0.137700000000     0.559650000000     0          
T        Si     0.698150000000     0.125000000000     0.551850000000     0          
O        O      0.832800000000     0.167200000000     0.564900000000     0          
O        O      0.862300000000     0.250000000000     0.559650000000     0          
T        Si     0.875000000000     0.198150000000     0.551850000000     0          
O        O      0.832800000000     0.332800000000     0.564900000000     0          
O        O      0.750000000000     0.362300000000     0.559650000000     0          
T        Si     0.801850000000     0.375000000000     0.551850000000     0          
O        O      0.667200000000     0.332800000000     0.564900000000     0          
O        O      0.637700000000     0.250000000000     0.559650000000     0          
T        Si     0.625000000000     0.301850000000     0.551850000000     0          
O        O      0.667200000000     0.332800000000     0.935100000000     0          
O        O      0.750000000000     0.362300000000     0.940350000000     0          
T        Si     0.698150000000     0.375000000000     0.948150000000     0          
O        O      0.667200000000     0.167200000000     0.935100000000     0          
O        O      0.637700000000     0.250000000000     0.940350000000     0          
T        Si     0.625000000000     0.198150000000     0.948150000000     0          
O        O      0.832800000000     0.167200000000     0.935100000000     0          
O        O      0.750000000000     0.137700000000     0.940350000000     0          
T        Si     0.801850000000     0.125000000000     0.948150000000     0          
O        O      0.832800000000     0.332800000000     0.935100000000     0          
O        O      0.862300000000     0.250000000000     0.940350000000     0          
T        Si     0.875000000000     0.301850000000     0.948150000000     0          
O        O      0.564900000000     0.167200000000     0.667200000000     0          
O        O      0.559650000000     0.250000000000     0.637700000000     0          
T        Si     0.551850000000     0.198150000000     0.625000000000     0          
O        O      0.564900000000     0.332800000000     0.832800000000     0          
O        O      0.559650000000     0.250000000000     0.862300000000     0          
T        Si     0.551850000000     0.301850000000     0.875000000000     0          
O        O      0.667200000000     0.064900000000     0.832800000000     0          
O        O      0.750000000000     0.059650000000     0.862300000000     0          
T        Si     0.698150000000     0.051850000000     0.875000000000     0          
O        O      0.935100000000     0.167200000000     0.832800000000     0          
O        O      0.940350000000     0.250000000000     0.862300000000     0          
T        Si     0.948150000000     0.198150000000     0.875000000000     0          
O        O      0.832800000000     0.435100000000     0.832800000000     0          
O        O      0.750000000000     0.440350000000     0.862300000000     0          
T        Si     0.801850000000     0.448150000000     0.875000000000     0          
O        O      0.935100000000     0.332800000000     0.667200000000     0          
O        O      0.940350000000     0.250000000000     0.637700000000     0          
T        Si     0.948150000000     0.301850000000     0.625000000000     0          
O        O      0.667200000000     0.435100000000     0.667200000000     0          
O        O      0.750000000000     0.440350000000     0.637700000000     0          
T        Si     0.698150000000     0.448150000000     0.625000000000     0          
O        O      0.832800000000     0.064900000000     0.667200000000     0          
O        O      0.750000000000     0.059650000000     0.637700000000     0          
T        Si     0.801850000000     0.051850000000     0.625000000000     0          
T        Si     0.875000000000     0.448150000000     0.801850000000     0          
T        Si     0.551850000000     0.375000000000     0.801850000000     0          
T        Si     0.625000000000     0.051850000000     0.801850000000     0          
T        Si     0.948150000000     0.125000000000     0.801850000000     0          
T        Si     0.875000000000     0.051850000000     0.698150000000     0          
T        Si     0.948150000000     0.375000000000     0.698150000000     0          
T        Si     0.625000000000     0.448150000000     0.698150000000     0          
T        Si     0.551850000000     0.125000000000     0.698150000000     0          
T        Si     0.801850000000     0.375000000000     0.948150000000     0          
T        Si     0.625000000000     0.301850000000     0.948150000000     0          
T        Si     0.698150000000     0.125000000000     0.948150000000     0          
T        Si     0.875000000000     0.198150000000     0.948150000000     0          
T        Si     0.801850000000     0.125000000000     0.551850000000     0          
T        Si     0.875000000000     0.301850000000     0.551850000000     0          
T        Si     0.698150000000     0.375000000000     0.551850000000     0          
T        Si     0.625000000000     0.198150000000     0.551850000000     0          
T        Si     0.948150000000     0.301850000000     0.875000000000     0          
T        Si     0.948150000000     0.198150000000     0.625000000000     0          
T        Si     0.801850000000     0.448150000000     0.625000000000     0          
T        Si     0.551850000000     0.301850000000     0.625000000000     0          
T        Si     0.698150000000     0.051850000000     0.625000000000     0          
T        Si     0.551850000000     0.198150000000     0.875000000000     0          
T        Si     0.801850000000     0.051850000000     0.875000000000     0          
T        Si     0.698150000000     0.448150000000     0.875000000000     0          
O        O      0.917200000000     0.314900000000     0.917200000000     0          
O        O      0.887700000000     0.309650000000     0.500000000000     0          
O        O      0.685100000000     0.417200000000     0.917200000000     0          
O        O      0.690350000000     0.387700000000     0.500000000000     0          
O        O      0.582800000000     0.185100000000     0.917200000000     0          
O        O      0.612300000000     0.190350000000     0.500000000000     0          
O        O      0.814900000000     0.082800000000     0.917200000000     0          
O        O      0.809650000000     0.112300000000     0.500000000000     0          
O        O      0.917200000000     0.185100000000     0.582800000000     0          
O        O      0.887700000000     0.190350000000     0.500000000000     0          
O        O      0.814900000000     0.417200000000     0.582800000000     0          
O        O      0.809650000000     0.387700000000     0.500000000000     0          
O        O      0.582800000000     0.314900000000     0.582800000000     0          
O        O      0.612300000000     0.309650000000     0.500000000000     0          
O        O      0.685100000000     0.082800000000     0.582800000000     0          
O        O      0.690350000000     0.112300000000     0.500000000000     0          
O        O      0.917200000000     0.417200000000     0.814900000000     0          
O        O      0.500000000000     0.387700000000     0.809650000000     0          
O        O      0.582800000000     0.417200000000     0.814900000000     0          
O        O      0.612300000000     0.000000000000     0.809650000000     0          
O        O      0.582800000000     0.082800000000     0.814900000000     0          
O        O      0.500000000000     0.112300000000     0.809650000000     0          
O        O      0.917200000000     0.082800000000     0.814900000000     0          
O        O      0.887700000000     0.000000000000     0.809650000000     0          
O        O      0.917200000000     0.082800000000     0.685100000000     0          
O        O      0.500000000000     0.112300000000     0.690350000000     0          
O        O      0.917200000000     0.417200000000     0.685100000000     0          
O        O      0.887700000000     0.000000000000     0.690350000000     0          
O        O      0.582800000000     0.417200000000     0.685100000000     0          
O        O      0.500000000000     0.387700000000     0.690350000000     0          
O        O      0.582800000000     0.082800000000     0.685100000000     0          
O        O      0.612300000000     0.000000000000     0.690350000000     0          
O        O      0.814900000000     0.417200000000     0.917200000000     0          
O        O      0.809650000000     0.000000000000     0.887700000000     0          
O        O      0.814900000000     0.082800000000     0.582800000000     0          
O        O      0.809650000000     0.000000000000     0.612300000000     0          
O        O      0.917200000000     0.314900000000     0.582800000000     0          
O        O      0.500000000000     0.309650000000     0.612300000000     0          
O        O      0.685100000000     0.417200000000     0.582800000000     0          
O        O      0.690350000000     0.000000000000     0.612300000000     0          
O        O      0.582800000000     0.185100000000     0.582800000000     0          
O        O      0.500000000000     0.190350000000     0.612300000000     0          
O        O      0.685100000000     0.082800000000     0.917200000000     0          
O        O      0.690350000000     0.000000000000     0.887700000000     0          
O        O      0.917200000000     0.185100000000     0.917200000000     0          
O        O      0.500000000000     0.190350000000     0.887700000000     0          
O        O      0.582800000000     0.314900000000     0.917200000000     0          
O        O      0.500000000000     0.309650000000     0.887700000000     0          
O        O      0.667200000000     0.564900000000     0.167200000000     0          
O        O      0.637700000000     0.559650000000     0.250000000000     0          
T        Si     0.625000000000     0.551850000000     0.198150000000     0          
O        O      0.935100000000     0.667200000000     0.167200000000     0          
O        O      0.940350000000     0.637700000000     0.250000000000     0          
T        Si     0.948150000000     0.625000000000     0.198150000000     0          
O        O      0.832800000000     0.935100000000     0.167200000000     0          
O        O      0.862300000000     0.940350000000     0.250000000000     0          
T        Si     0.875000000000     0.948150000000     0.198150000000     0          
O        O      0.564900000000     0.832800000000     0.167200000000     0          
O        O      0.559650000000     0.862300000000     0.250000000000     0          
T        Si     0.551850000000     0.875000000000     0.198150000000     0          
O        O      0.667200000000     0.935100000000     0.332800000000     0          
O        O      0.637700000000     0.940350000000     0.250000000000     0          
T        Si     0.625000000000     0.948150000000     0.301850000000     0          
O        O      0.564900000000     0.667200000000     0.332800000000     0          
O        O      0.559650000000     0.637700000000     0.250000000000     0          
T        Si     0.551850000000     0.625000000000     0.301850000000     0          
O        O      0.832800000000     0.564900000000     0.332800000000     0          
O        O      0.862300000000     0.559650000000     0.250000000000     0          
T        Si     0.875000000000     0.551850000000     0.301850000000     0          
O        O      0.935100000000     0.832800000000     0.332800000000     0          
O        O      0.940350000000     0.862300000000     0.250000000000     0          
T        Si     0.948150000000     0.875000000000     0.301850000000     0          
O        O      0.667200000000     0.667200000000     0.064900000000     0          
O        O      0.750000000000     0.637700000000     0.059650000000     0          
T        Si     0.698150000000     0.625000000000     0.051850000000     0          
O        O      0.832800000000     0.667200000000     0.064900000000     0          
O        O      0.862300000000     0.750000000000     0.059650000000     0          
T        Si     0.875000000000     0.698150000000     0.051850000000     0          
O        O      0.832800000000     0.832800000000     0.064900000000     0          
O        O      0.750000000000     0.862300000000     0.059650000000     0          
T        Si     0.801850000000     0.875000000000     0.051850000000     0          
O        O      0.667200000000     0.832800000000     0.064900000000     0          
O        O      0.637700000000     0.750000000000     0.059650000000     0          
T        Si     0.625000000000     0.801850000000     0.051850000000     0          
O        O      0.667200000000     0.832800000000     0.435100000000     0          
O        O      0.750000000000     0.862300000000     0.440350000000     0          
T        Si     0.698150000000     0.875000000000     0.448150000000     0          
O        O      0.667200000000     0.667200000000     0.435100000000     0          
O        O      0.637700000000     0.750000000000     0.440350000000     0          
T        Si     0.625000000000     0.698150000000     0.448150000000     0          
O        O      0.832800000000     0.667200000000     0.435100000000     0          
O        O      0.750000000000     0.637700000000     0.440350000000     0          
T        Si     0.801850000000     0.625000000000     0.448150000000     0          
O        O      0.832800000000     0.832800000000     0.435100000000     0          
O        O      0.862300000000     0.750000000000     0.440350000000     0          
T        Si     0.875000000000     0.801850000000     0.448150000000     0          
O        O      0.564900000000     0.667200000000     0.167200000000     0          
O        O      0.559650000000     0.750000000000     0.137700000000     0          
T        Si     0.551850000000     0.698150000000     0.125000000000     0          
O        O      0.564900000000     0.832800000000     0.332800000000     0          
O        O      0.559650000000     0.750000000000     0.362300000000     0          
T        Si     0.551850000000     0.801850000000     0.375000000000     0          
O        O      0.667200000000     0.564900000000     0.332800000000     0          
O        O      0.750000000000     0.559650000000     0.362300000000     0          
T        Si     0.698150000000     0.551850000000     0.375000000000     0          
O        O      0.935100000000     0.667200000000     0.332800000000     0          
O        O      0.940350000000     0.750000000000     0.362300000000     0          
T        Si     0.948150000000     0.698150000000     0.375000000000     0          
O        O      0.832800000000     0.935100000000     0.332800000000     0          
O        O      0.750000000000     0.940350000000     0.362300000000     0          
T        Si     0.801850000000     0.948150000000     0.375000000000     0          
O        O      0.935100000000     0.832800000000     0.167200000000     0          
O        O      0.940350000000     0.750000000000     0.137700000000     0          
T        Si     0.948150000000     0.801850000000     0.125000000000     0          
O        O      0.667200000000     0.935100000000     0.167200000000     0          
O        O      0.750000000000     0.940350000000     0.137700000000     0          
T        Si     0.698150000000     0.948150000000     0.125000000000     0          
O        O      0.832800000000     0.564900000000     0.167200000000     0          
O        O      0.750000000000     0.559650000000     0.137700000000     0          
T        Si     0.801850000000     0.551850000000     0.125000000000     0          
T        Si     0.875000000000     0.948150000000     0.301850000000     0          
T        Si     0.551850000000     0.875000000000     0.301850000000     0          
T        Si     0.625000000000     0.551850000000     0.301850000000     0          
T        Si     0.948150000000     0.625000000000     0.301850000000     0          
T        Si     0.875000000000     0.551850000000     0.198150000000     0          
T        Si     0.948150000000     0.875000000000     0.198150000000     0          
T        Si     0.625000000000     0.948150000000     0.198150000000     0          
T        Si     0.551850000000     0.625000000000     0.198150000000     0          
T        Si     0.801850000000     0.875000000000     0.448150000000     0          
T        Si     0.625000000000     0.801850000000     0.448150000000     0          
T        Si     0.698150000000     0.625000000000     0.448150000000     0          
T        Si     0.875000000000     0.698150000000     0.448150000000     0          
T        Si     0.801850000000     0.625000000000     0.051850000000     0          
T        Si     0.875000000000     0.801850000000     0.051850000000     0          
T        Si     0.698150000000     0.875000000000     0.051850000000     0          
T        Si     0.625000000000     0.698150000000     0.051850000000     0          
T        Si     0.948150000000     0.801850000000     0.375000000000     0          
T        Si     0.948150000000     0.698150000000     0.125000000000     0          
T        Si     0.801850000000     0.948150000000     0.125000000000     0          
T        Si     0.551850000000     0.801850000000     0.125000000000     0          
T        Si     0.698150000000     0.551850000000     0.125000000000     0          
T        Si     0.551850000000     0.698150000000     0.375000000000     0          
T        Si     0.801850000000     0.551850000000     0.375000000000     0          
T        Si     0.698150000000     0.948150000000     0.375000000000     0          
O        O      0.917200000000     0.814900000000     0.417200000000     0          
O        O      0.887700000000     0.809650000000     0.000000000000     0          
O        O      0.685100000000     0.917200000000     0.417200000000     0          
O        O      0.690350000000     0.887700000000     0.000000000000     0          
O        O      0.582800000000     0.685100000000     0.417200000000     0          
O        O      0.612300000000     0.690350000000     0.000000000000     0          
O        O      0.814900000000     0.582800000000     0.417200000000     0          
O        O      0.809650000000     0.612300000000     0.000000000000     0          
O        O      0.917200000000     0.685100000000     0.082800000000     0          
O        O      0.887700000000     0.690350000000     0.000000000000     0          
O        O      0.814900000000     0.917200000000     0.082800000000     0          
O        O      0.809650000000     0.887700000000     0.000000000000     0          
O        O      0.582800000000     0.814900000000     0.082800000000     0          
O        O      0.612300000000     0.809650000000     0.000000000000     0          
O        O      0.685100000000     0.582800000000     0.082800000000     0          
O        O      0.690350000000     0.612300000000     0.000000000000     0          
O        O      0.917200000000     0.917200000000     0.314900000000     0          
O        O      0.500000000000     0.887700000000     0.309650000000     0          
O        O      0.582800000000     0.917200000000     0.314900000000     0          
O        O      0.612300000000     0.500000000000     0.309650000000     0          
O        O      0.582800000000     0.582800000000     0.314900000000     0          
O        O      0.500000000000     0.612300000000     0.309650000000     0          
O        O      0.917200000000     0.582800000000     0.314900000000     0          
O        O      0.887700000000     0.500000000000     0.309650000000     0          
O        O      0.917200000000     0.582800000000     0.185100000000     0          
O        O      0.500000000000     0.612300000000     0.190350000000     0          
O        O      0.917200000000     0.917200000000     0.185100000000     0          
O        O      0.887700000000     0.500000000000     0.190350000000     0          
O        O      0.582800000000     0.917200000000     0.185100000000     0          
O        O      0.500000000000     0.887700000000     0.190350000000     0          
O        O      0.582800000000     0.582800000000     0.185100000000     0          
O        O      0.612300000000     0.500000000000     0.190350000000     0          
O        O      0.814900000000     0.917200000000     0.417200000000     0          
O        O      0.809650000000     0.500000000000     0.387700000000     0          
O        O      0.814900000000     0.582800000000     0.082800000000     0          
O        O      0.809650000000     0.500000000000     0.112300000000     0          
O        O      0.917200000000     0.814900000000     0.082800000000     0          
O        O      0.500000000000     0.809650000000     0.112300000000     0          
O        O      0.685100000000     0.917200000000     0.082800000000     0          
O        O      0.690350000000     0.500000000000     0.112300000000     0          
O        O      0.582800000000     0.685100000000     0.082800000000     0          
O        O      0.500000000000     0.690350000000     0.112300000000     0          
O        O      0.685100000000     0.582800000000     0.417200000000     0          
O        O      0.690350000000     0.500000000000     0.387700000000     0          
O        O      0.917200000000     0.685100000000     0.417200000000     0          
O        O      0.500000000000     0.690350000000     0.387700000000     0          
O        O      0.582800000000     0.814900000000     0.417200000000     0          
O        O      0.500000000000     0.809650000000     0.387700000000     0          
O        O      0.667200000000     0.564900000000     0.667200000000     0          
O        O      0.637700000000     0.559650000000     0.750000000000     0          
T        Si     0.625000000000     0.551850000000     0.698150000000     0          
O        O      0.935100000000     0.667200000000     0.667200000000     0          
O        O      0.940350000000     0.637700000000     0.750000000000     0          
T        Si     0.948150000000     0.625000000000     0.698150000000     0          
O        O      0.832800000000     0.935100000000     0.667200000000     0          
O        O      0.862300000000     0.940350000000     0.750000000000     0          
T        Si     0.875000000000     0.948150000000     0.698150000000     0          
O        O      0.564900000000     0.832800000000     0.667200000000     0          
O        O      0.559650000000     0.862300000000     0.750000000000     0          
T        Si     0.551850000000     0.875000000000     0.698150000000     0          
O        O      0.667200000000     0.935100000000     0.832800000000     0          
O        O      0.637700000000     0.940350000000     0.750000000000     0          
T        Si     0.625000000000     0.948150000000     0.801850000000     0          
O        O      0.564900000000     0.667200000000     0.832800000000     0          
O        O      0.559650000000     0.637700000000     0.750000000000     0          
T        Si     0.551850000000     0.625000000000     0.801850000000     0          
O        O      0.832800000000     0.564900000000     0.832800000000     0          
O        O      0.862300000000     0.559650000000     0.750000000000     0          
T        Si     0.875000000000     0.551850000000     0.801850000000     0          
O        O      0.935100000000     0.832800000000     0.832800000000     0          
O        O      0.940350000000     0.862300000000     0.750000000000     0          
T        Si     0.948150000000     0.875000000000     0.801850000000     0          
O        O      0.667200000000     0.667200000000     0.564900000000     0          
O        O      0.750000000000     0.637700000000     0.559650000000     0          
T        Si     0.698150000000     0.625000000000     0.551850000000     0          
O        O      0.832800000000     0.667200000000     0.564900000000     0          
O        O      0.862300000000     0.750000000000     0.559650000000     0          
T        Si     0.875000000000     0.698150000000     0.551850000000     0          
O        O      0.832800000000     0.832800000000     0.564900000000     0          
O        O      0.750000000000     0.862300000000     0.559650000000     0          
T        Si     0.801850000000     0.875000000000     0.551850000000     0          
O        O      0.667200000000     0.832800000000     0.564900000000     0          
O        O      0.637700000000     0.750000000000     0.559650000000     0          
T        Si     0.625000000000     0.801850000000     0.551850000000     0          
O        O      0.667200000000     0.832800000000     0.935100000000     0          
O        O      0.750000000000     0.862300000000     0.940350000000     0          
T        Si     0.698150000000     0.875000000000     0.948150000000     0          
O        O      0.667200000000     0.667200000000     0.935100000000     0          
O        O      0.637700000000     0.750000000000     0.940350000000     0          
T        Si     0.625000000000     0.698150000000     0.948150000000     0          
O        O      0.832800000000     0.667200000000     0.935100000000     0          
O        O      0.750000000000     0.637700000000     0.940350000000     0          
T        Si     0.801850000000     0.625000000000     0.948150000000     0          
O        O      0.832800000000     0.832800000000     0.935100000000     0          
O        O      0.862300000000     0.750000000000     0.940350000000     0          
T        Si     0.875000000000     0.801850000000     0.948150000000     0          
O        O      0.564900000000     0.667200000000     0.667200000000     0          
O        O      0.559650000000     0.750000000000     0.637700000000     0          
T        Si     0.551850000000     0.698150000000     0.625000000000     0          
O        O      0.564900000000     0.832800000000     0.832800000000     0          
O        O      0.559650000000     0.750000000000     0.862300000000     0          
T        Si     0.551850000000     0.801850000000     0.875000000000     0          
O        O      0.667200000000     0.564900000000     0.832800000000     0          
O        O      0.750000000000     0.559650000000     0.862300000000     0          
T        Si     0.698150000000     0.551850000000     0.875000000000     0          
O        O      0.935100000000     0.667200000000     0.832800000000     0          
O        O      0.940350000000     0.750000000000     0.862300000000     0          
T        Si     0.948150000000     0.698150000000     0.875000000000     0          
O        O      0.832800000000     0.935100000000     0.832800000000     0          
O        O      0.750000000000     0.940350000000     0.862300000000     0          
T        Si     0.801850000000     0.948150000000     0.875000000000     0          
O        O      0.935100000000     0.832800000000     0.667200000000     0          
O        O      0.940350000000     0.750000000000     0.637700000000     0          
T        Si     0.948150000000     0.801850000000     0.625000000000     0          
O        O      0.667200000000     0.935100000000     0.667200000000     0          
O        O      0.750000000000     0.940350000000     0.637700000000     0          
T        Si     0.698150000000     0.948150000000     0.625000000000     0          
O        O      0.832800000000     0.564900000000     0.667200000000     0          
O        O      0.750000000000     0.559650000000     0.637700000000     0          
T        Si     0.801850000000     0.551850000000     0.625000000000     0          
T        Si     0.875000000000     0.948150000000     0.801850000000     0          
T        Si     0.551850000000     0.875000000000     0.801850000000     0          
T        Si     0.625000000000     0.551850000000     0.801850000000     0          
T        Si     0.948150000000     0.625000000000     0.801850000000     0          
T        Si     0.875000000000     0.551850000000     0.698150000000     0          
T        Si     0.948150000000     0.875000000000     0.698150000000     0          
T        Si     0.625000000000     0.948150000000     0.698150000000     0          
T        Si     0.551850000000     0.625000000000     0.698150000000     0          
T        Si     0.801850000000     0.875000000000     0.948150000000     0          
T        Si     0.625000000000     0.801850000000     0.948150000000     0          
T        Si     0.698150000000     0.625000000000     0.948150000000     0          
T        Si     0.875000000000     0.698150000000     0.948150000000     0          
T        Si     0.801850000000     0.625000000000     0.551850000000     0          
T        Si     0.875000000000     0.801850000000     0.551850000000     0          
T        Si     0.698150000000     0.875000000000     0.551850000000     0          
T        Si     0.625000000000     0.698150000000     0.551850000000     0          
T        Si     0.948150000000     0.801850000000     0.875000000000     0          
T        Si     0.948150000000     0.698150000000     0.625000000000     0          
T        Si     0.801850000000     0.948150000000     0.625000000000     0          
T        Si     0.551850000000     0.801850000000     0.625000000000     0          
T        Si     0.698150000000     0.551850000000     0.625000000000     0          
T        Si     0.551850000000     0.698150000000     0.875000000000     0          
T        Si     0.801850000000     0.551850000000     0.875000000000     0          
T        Si     0.698150000000     0.948150000000     0.875000000000     0          
O        O      0.917200000000     0.814900000000     0.917200000000     0          
O        O      0.887700000000     0.809650000000     0.500000000000     0          
O        O      0.685100000000     0.917200000000     0.917200000000     0          
O        O      0.690350000000     0.887700000000     0.500000000000     0          
O        O      0.582800000000     0.685100000000     0.917200000000     0          
O        O      0.612300000000     0.690350000000     0.500000000000     0          
O        O      0.814900000000     0.582800000000     0.917200000000     0          
O        O      0.809650000000     0.612300000000     0.500000000000     0          
O        O      0.917200000000     0.685100000000     0.582800000000     0          
O        O      0.887700000000     0.690350000000     0.500000000000     0          
O        O      0.814900000000     0.917200000000     0.582800000000     0          
O        O      0.809650000000     0.887700000000     0.500000000000     0          
O        O      0.582800000000     0.814900000000     0.582800000000     0          
O        O      0.612300000000     0.809650000000     0.500000000000     0          
O        O      0.685100000000     0.582800000000     0.582800000000     0          
O        O      0.690350000000     0.612300000000     0.500000000000     0          
O        O      0.917200000000     0.917200000000     0.814900000000     0          
O        O      0.500000000000     0.887700000000     0.809650000000     0          
O        O      0.582800000000     0.917200000000     0.814900000000     0          
O        O      0.612300000000     0.500000000000     0.809650000000     0          
O        O      0.582800000000     0.582800000000     0.814900000000     0          
O        O      0.500000000000     0.612300000000     0.809650000000     0          
O        O      0.917200000000     0.582800000000     0.814900000000     0          
O        O      0.887700000000     0.500000000000     0.809650000000     0          
O        O      0.917200000000     0.582800000000     0.685100000000     0          
O        O      0.500000000000     0.612300000000     0.690350000000     0          
O        O      0.917200000000     0.917200000000     0.685100000000     0          
O        O      0.887700000000     0.500000000000     0.690350000000     0          
O        O      0.582800000000     0.917200000000     0.685100000000     0          
O        O      0.500000000000     0.887700000000     0.690350000000     0          
O        O      0.582800000000     0.582800000000     0.685100000000     0          
O        O      0.612300000000     0.500000000000     0.690350000000     0          
O        O      0.814900000000     0.917200000000     0.917200000000     0          
O        O      0.809650000000     0.500000000000     0.887700000000     0          
O        O      0.814900000000     0.582800000000     0.582800000000     0          
O        O      0.809650000000     0.500000000000     0.612300000000     0          
O        O      0.917200000000     0.814900000000     0.582800000000     0          
O        O      0.500000000000     0.809650000000     0.612300000000     0          
O        O      0.685100000000     0.917200000000     0.582800000000     0          
O        O      0.690350000000     0.500000000000     0.612300000000     0          
O        O      0.582800000000     0.685100000000     0.582800000000     0          
O        O      0.500000000000     0.690350000000     0.612300000000     0          
O        O      0.685100000000     0.582800000000     0.917200000000     0          
O        O      0.690350000000     0.500000000000     0.887700000000     0          
O        O      0.917200000000     0.685100000000     0.917200000000     0          
O        O      0.500000000000     0.690350000000     0.887700000000     0          
O        O      0.582800000000     0.814900000000     0.917200000000     0          
O        O      0.500000000000     0.809650000000     0.887700000000     0          


