data_zeolite

_audit_creation_method RASPA-1.0
_audit_creation_date 2021-6-7
_audit_author_name ''

_cell_length_a    16.5
_cell_length_b    20.185
_cell_length_c    5.08
_cell_angle_alpha 90
_cell_angle_beta  90
_cell_angle_gamma 90
_cell_volume      40605.8

_symmetry_cell_setting          orthorhombic
_symmetry_space_group_name_Hall 'P 1'
_symmetry_space_group_name_H-M  'P 1'
_symmetry_Int_Tables_number     1

_symmetry_equiv_pos_as_xyz 'x,y,z'

loop_
_atom_site_label
_atom_site_type_symbol
_atom_site_fract_x
_atom_site_fract_y
_atom_site_fract_z
_atom_site_charge
T        Si     0.156050000000     0.094200000000     0.095250000000     0          
T        Si     0.092000000000     0.038600000000     0.093183333333     0          
T        Si     0.045650000000     0.060850000000     0.010216666667     0          
T        Si     0.045350000000     0.140500000000     0.011550000000     0          
T        Si     0.343950000000     0.405800000000     0.095250000000     0          
T        Si     0.408000000000     0.461400000000     0.093183333333     0          
T        Si     0.454350000000     0.439150000000     0.010216666667     0          
T        Si     0.454650000000     0.359500000000     0.011550000000     0          
T        Si     0.156050000000     0.405800000000     0.071416666667     0          
T        Si     0.092000000000     0.461400000000     0.073483333333     0          
T        Si     0.045650000000     0.439150000000     0.156450000000     0          
T        Si     0.045350000000     0.359500000000     0.155116666667     0          
T        Si     0.343950000000     0.094200000000     0.071416666667     0          
T        Si     0.408000000000     0.038600000000     0.073483333333     0          
T        Si     0.454350000000     0.060850000000     0.156450000000     0          
T        Si     0.454650000000     0.140500000000     0.155116666667     0          
T        Si     0.406050000000     0.344200000000     0.095250000000     0          
T        Si     0.342000000000     0.288600000000     0.093183333333     0          
T        Si     0.295650000000     0.310850000000     0.010216666667     0          
T        Si     0.295350000000     0.390500000000     0.011550000000     0          
T        Si     0.093950000000     0.155800000000     0.095250000000     0          
T        Si     0.158000000000     0.211400000000     0.093183333333     0          
T        Si     0.204350000000     0.189150000000     0.010216666667     0          
T        Si     0.204650000000     0.109500000000     0.011550000000     0          
T        Si     0.406050000000     0.155800000000     0.071416666667     0          
T        Si     0.342000000000     0.211400000000     0.073483333333     0          
T        Si     0.295650000000     0.189150000000     0.156450000000     0          
T        Si     0.295350000000     0.109500000000     0.155116666667     0          
T        Si     0.093950000000     0.344200000000     0.071416666667     0          
T        Si     0.158000000000     0.288600000000     0.073483333333     0          
T        Si     0.204350000000     0.310850000000     0.156450000000     0          
T        Si     0.204650000000     0.390500000000     0.155116666667     0          
T        Si     0.156050000000     0.094200000000     0.261916666667     0          
T        Si     0.092000000000     0.038600000000     0.259850000000     0          
T        Si     0.045650000000     0.060850000000     0.176883333333     0          
T        Si     0.045350000000     0.140500000000     0.178216666667     0          
T        Si     0.343950000000     0.405800000000     0.261916666667     0          
T        Si     0.408000000000     0.461400000000     0.259850000000     0          
T        Si     0.454350000000     0.439150000000     0.176883333333     0          
T        Si     0.454650000000     0.359500000000     0.178216666667     0          
T        Si     0.156050000000     0.405800000000     0.238083333333     0          
T        Si     0.092000000000     0.461400000000     0.240150000000     0          
T        Si     0.045650000000     0.439150000000     0.323116666667     0          
T        Si     0.045350000000     0.359500000000     0.321783333333     0          
T        Si     0.343950000000     0.094200000000     0.238083333333     0          
T        Si     0.408000000000     0.038600000000     0.240150000000     0          
T        Si     0.454350000000     0.060850000000     0.323116666667     0          
T        Si     0.454650000000     0.140500000000     0.321783333333     0          
T        Si     0.406050000000     0.344200000000     0.261916666667     0          
T        Si     0.342000000000     0.288600000000     0.259850000000     0          
T        Si     0.295650000000     0.310850000000     0.176883333333     0          
T        Si     0.295350000000     0.390500000000     0.178216666667     0          
T        Si     0.093950000000     0.155800000000     0.261916666667     0          
T        Si     0.158000000000     0.211400000000     0.259850000000     0          
T        Si     0.204350000000     0.189150000000     0.176883333333     0          
T        Si     0.204650000000     0.109500000000     0.178216666667     0          
T        Si     0.406050000000     0.155800000000     0.238083333333     0          
T        Si     0.342000000000     0.211400000000     0.240150000000     0          
T        Si     0.295650000000     0.189150000000     0.323116666667     0          
T        Si     0.295350000000     0.109500000000     0.321783333333     0          
T        Si     0.093950000000     0.344200000000     0.238083333333     0          
T        Si     0.158000000000     0.288600000000     0.240150000000     0          
T        Si     0.204350000000     0.310850000000     0.323116666667     0          
T        Si     0.204650000000     0.390500000000     0.321783333333     0          
T        Si     0.156050000000     0.094200000000     0.428583333333     0          
T        Si     0.092000000000     0.038600000000     0.426516666667     0          
T        Si     0.045650000000     0.060850000000     0.343550000000     0          
T        Si     0.045350000000     0.140500000000     0.344883333333     0          
T        Si     0.343950000000     0.405800000000     0.428583333333     0          
T        Si     0.408000000000     0.461400000000     0.426516666667     0          
T        Si     0.454350000000     0.439150000000     0.343550000000     0          
T        Si     0.454650000000     0.359500000000     0.344883333333     0          
T        Si     0.156050000000     0.405800000000     0.404750000000     0          
T        Si     0.092000000000     0.461400000000     0.406816666667     0          
T        Si     0.045650000000     0.439150000000     0.489783333333     0          
T        Si     0.045350000000     0.359500000000     0.488450000000     0          
T        Si     0.343950000000     0.094200000000     0.404750000000     0          
T        Si     0.408000000000     0.038600000000     0.406816666667     0          
T        Si     0.454350000000     0.060850000000     0.489783333333     0          
T        Si     0.454650000000     0.140500000000     0.488450000000     0          
T        Si     0.406050000000     0.344200000000     0.428583333333     0          
T        Si     0.342000000000     0.288600000000     0.426516666667     0          
T        Si     0.295650000000     0.310850000000     0.343550000000     0          
T        Si     0.295350000000     0.390500000000     0.344883333333     0          
T        Si     0.093950000000     0.155800000000     0.428583333333     0          
T        Si     0.158000000000     0.211400000000     0.426516666667     0          
T        Si     0.204350000000     0.189150000000     0.343550000000     0          
T        Si     0.204650000000     0.109500000000     0.344883333333     0          
T        Si     0.406050000000     0.155800000000     0.404750000000     0          
T        Si     0.342000000000     0.211400000000     0.406816666667     0          
T        Si     0.295650000000     0.189150000000     0.489783333333     0          
T        Si     0.295350000000     0.109500000000     0.488450000000     0          
T        Si     0.093950000000     0.344200000000     0.404750000000     0          
T        Si     0.158000000000     0.288600000000     0.406816666667     0          
T        Si     0.204350000000     0.310850000000     0.489783333333     0          
T        Si     0.204650000000     0.390500000000     0.488450000000     0          
T        Si     0.156050000000     0.094200000000     0.595250000000     0          
T        Si     0.092000000000     0.038600000000     0.593183333333     0          
T        Si     0.045650000000     0.060850000000     0.510216666667     0          
T        Si     0.045350000000     0.140500000000     0.511550000000     0          
T        Si     0.343950000000     0.405800000000     0.595250000000     0          
T        Si     0.408000000000     0.461400000000     0.593183333333     0          
T        Si     0.454350000000     0.439150000000     0.510216666667     0          
T        Si     0.454650000000     0.359500000000     0.511550000000     0          
T        Si     0.156050000000     0.405800000000     0.571416666667     0          
T        Si     0.092000000000     0.461400000000     0.573483333333     0          
T        Si     0.045650000000     0.439150000000     0.656450000000     0          
T        Si     0.045350000000     0.359500000000     0.655116666667     0          
T        Si     0.343950000000     0.094200000000     0.571416666667     0          
T        Si     0.408000000000     0.038600000000     0.573483333333     0          
T        Si     0.454350000000     0.060850000000     0.656450000000     0          
T        Si     0.454650000000     0.140500000000     0.655116666667     0          
T        Si     0.406050000000     0.344200000000     0.595250000000     0          
T        Si     0.342000000000     0.288600000000     0.593183333333     0          
T        Si     0.295650000000     0.310850000000     0.510216666667     0          
T        Si     0.295350000000     0.390500000000     0.511550000000     0          
T        Si     0.093950000000     0.155800000000     0.595250000000     0          
T        Si     0.158000000000     0.211400000000     0.593183333333     0          
T        Si     0.204350000000     0.189150000000     0.510216666667     0          
T        Si     0.204650000000     0.109500000000     0.511550000000     0          
T        Si     0.406050000000     0.155800000000     0.571416666667     0          
T        Si     0.342000000000     0.211400000000     0.573483333333     0          
T        Si     0.295650000000     0.189150000000     0.656450000000     0          
T        Si     0.295350000000     0.109500000000     0.655116666667     0          
T        Si     0.093950000000     0.344200000000     0.571416666667     0          
T        Si     0.158000000000     0.288600000000     0.573483333333     0          
T        Si     0.204350000000     0.310850000000     0.656450000000     0          
T        Si     0.204650000000     0.390500000000     0.655116666667     0          
T        Si     0.156050000000     0.094200000000     0.761916666667     0          
T        Si     0.092000000000     0.038600000000     0.759850000000     0          
T        Si     0.045650000000     0.060850000000     0.676883333333     0          
T        Si     0.045350000000     0.140500000000     0.678216666667     0          
T        Si     0.343950000000     0.405800000000     0.761916666667     0          
T        Si     0.408000000000     0.461400000000     0.759850000000     0          
T        Si     0.454350000000     0.439150000000     0.676883333333     0          
T        Si     0.454650000000     0.359500000000     0.678216666667     0          
T        Si     0.156050000000     0.405800000000     0.738083333333     0          
T        Si     0.092000000000     0.461400000000     0.740150000000     0          
T        Si     0.045650000000     0.439150000000     0.823116666667     0          
T        Si     0.045350000000     0.359500000000     0.821783333333     0          
T        Si     0.343950000000     0.094200000000     0.738083333333     0          
T        Si     0.408000000000     0.038600000000     0.740150000000     0          
T        Si     0.454350000000     0.060850000000     0.823116666667     0          
T        Si     0.454650000000     0.140500000000     0.821783333333     0          
T        Si     0.406050000000     0.344200000000     0.761916666667     0          
T        Si     0.342000000000     0.288600000000     0.759850000000     0          
T        Si     0.295650000000     0.310850000000     0.676883333333     0          
T        Si     0.295350000000     0.390500000000     0.678216666667     0          
T        Si     0.093950000000     0.155800000000     0.761916666667     0          
T        Si     0.158000000000     0.211400000000     0.759850000000     0          
T        Si     0.204350000000     0.189150000000     0.676883333333     0          
T        Si     0.204650000000     0.109500000000     0.678216666667     0          
T        Si     0.406050000000     0.155800000000     0.738083333333     0          
T        Si     0.342000000000     0.211400000000     0.740150000000     0          
T        Si     0.295650000000     0.189150000000     0.823116666667     0          
T        Si     0.295350000000     0.109500000000     0.821783333333     0          
T        Si     0.093950000000     0.344200000000     0.738083333333     0          
T        Si     0.158000000000     0.288600000000     0.740150000000     0          
T        Si     0.204350000000     0.310850000000     0.823116666667     0          
T        Si     0.204650000000     0.390500000000     0.821783333333     0          
T        Si     0.156050000000     0.094200000000     0.928583333333     0          
T        Si     0.092000000000     0.038600000000     0.926516666667     0          
T        Si     0.045650000000     0.060850000000     0.843550000000     0          
T        Si     0.045350000000     0.140500000000     0.844883333333     0          
T        Si     0.343950000000     0.405800000000     0.928583333333     0          
T        Si     0.408000000000     0.461400000000     0.926516666667     0          
T        Si     0.454350000000     0.439150000000     0.843550000000     0          
T        Si     0.454650000000     0.359500000000     0.844883333333     0          
T        Si     0.156050000000     0.405800000000     0.904750000000     0          
T        Si     0.092000000000     0.461400000000     0.906816666667     0          
T        Si     0.045650000000     0.439150000000     0.989783333333     0          
T        Si     0.045350000000     0.359500000000     0.988450000000     0          
T        Si     0.343950000000     0.094200000000     0.904750000000     0          
T        Si     0.408000000000     0.038600000000     0.906816666667     0          
T        Si     0.454350000000     0.060850000000     0.989783333333     0          
T        Si     0.454650000000     0.140500000000     0.988450000000     0          
T        Si     0.406050000000     0.344200000000     0.928583333333     0          
T        Si     0.342000000000     0.288600000000     0.926516666667     0          
T        Si     0.295650000000     0.310850000000     0.843550000000     0          
T        Si     0.295350000000     0.390500000000     0.844883333333     0          
T        Si     0.093950000000     0.155800000000     0.928583333333     0          
T        Si     0.158000000000     0.211400000000     0.926516666667     0          
T        Si     0.204350000000     0.189150000000     0.843550000000     0          
T        Si     0.204650000000     0.109500000000     0.844883333333     0          
T        Si     0.406050000000     0.155800000000     0.904750000000     0          
T        Si     0.342000000000     0.211400000000     0.906816666667     0          
T        Si     0.295650000000     0.189150000000     0.989783333333     0          
T        Si     0.295350000000     0.109500000000     0.988450000000     0          
T        Si     0.093950000000     0.344200000000     0.904750000000     0          
T        Si     0.158000000000     0.288600000000     0.906816666667     0          
T        Si     0.204350000000     0.310850000000     0.989783333333     0          
T        Si     0.204650000000     0.390500000000     0.988450000000     0          
T        Si     0.156050000000     0.594200000000     0.095250000000     0          
T        Si     0.092000000000     0.538600000000     0.093183333333     0          
T        Si     0.045650000000     0.560850000000     0.010216666667     0          
T        Si     0.045350000000     0.640500000000     0.011550000000     0          
T        Si     0.343950000000     0.905800000000     0.095250000000     0          
T        Si     0.408000000000     0.961400000000     0.093183333333     0          
T        Si     0.454350000000     0.939150000000     0.010216666667     0          
T        Si     0.454650000000     0.859500000000     0.011550000000     0          
T        Si     0.156050000000     0.905800000000     0.071416666667     0          
T        Si     0.092000000000     0.961400000000     0.073483333333     0          
T        Si     0.045650000000     0.939150000000     0.156450000000     0          
T        Si     0.045350000000     0.859500000000     0.155116666667     0          
T        Si     0.343950000000     0.594200000000     0.071416666667     0          
T        Si     0.408000000000     0.538600000000     0.073483333333     0          
T        Si     0.454350000000     0.560850000000     0.156450000000     0          
T        Si     0.454650000000     0.640500000000     0.155116666667     0          
T        Si     0.406050000000     0.844200000000     0.095250000000     0          
T        Si     0.342000000000     0.788600000000     0.093183333333     0          
T        Si     0.295650000000     0.810850000000     0.010216666667     0          
T        Si     0.295350000000     0.890500000000     0.011550000000     0          
T        Si     0.093950000000     0.655800000000     0.095250000000     0          
T        Si     0.158000000000     0.711400000000     0.093183333333     0          
T        Si     0.204350000000     0.689150000000     0.010216666667     0          
T        Si     0.204650000000     0.609500000000     0.011550000000     0          
T        Si     0.406050000000     0.655800000000     0.071416666667     0          
T        Si     0.342000000000     0.711400000000     0.073483333333     0          
T        Si     0.295650000000     0.689150000000     0.156450000000     0          
T        Si     0.295350000000     0.609500000000     0.155116666667     0          
T        Si     0.093950000000     0.844200000000     0.071416666667     0          
T        Si     0.158000000000     0.788600000000     0.073483333333     0          
T        Si     0.204350000000     0.810850000000     0.156450000000     0          
T        Si     0.204650000000     0.890500000000     0.155116666667     0          
T        Si     0.156050000000     0.594200000000     0.261916666667     0          
T        Si     0.092000000000     0.538600000000     0.259850000000     0          
T        Si     0.045650000000     0.560850000000     0.176883333333     0          
T        Si     0.045350000000     0.640500000000     0.178216666667     0          
T        Si     0.343950000000     0.905800000000     0.261916666667     0          
T        Si     0.408000000000     0.961400000000     0.259850000000     0          
T        Si     0.454350000000     0.939150000000     0.176883333333     0          
T        Si     0.454650000000     0.859500000000     0.178216666667     0          
T        Si     0.156050000000     0.905800000000     0.238083333333     0          
T        Si     0.092000000000     0.961400000000     0.240150000000     0          
T        Si     0.045650000000     0.939150000000     0.323116666667     0          
T        Si     0.045350000000     0.859500000000     0.321783333333     0          
T        Si     0.343950000000     0.594200000000     0.238083333333     0          
T        Si     0.408000000000     0.538600000000     0.240150000000     0          
T        Si     0.454350000000     0.560850000000     0.323116666667     0          
T        Si     0.454650000000     0.640500000000     0.321783333333     0          
T        Si     0.406050000000     0.844200000000     0.261916666667     0          
T        Si     0.342000000000     0.788600000000     0.259850000000     0          
T        Si     0.295650000000     0.810850000000     0.176883333333     0          
T        Si     0.295350000000     0.890500000000     0.178216666667     0          
T        Si     0.093950000000     0.655800000000     0.261916666667     0          
T        Si     0.158000000000     0.711400000000     0.259850000000     0          
T        Si     0.204350000000     0.689150000000     0.176883333333     0          
T        Si     0.204650000000     0.609500000000     0.178216666667     0          
T        Si     0.406050000000     0.655800000000     0.238083333333     0          
T        Si     0.342000000000     0.711400000000     0.240150000000     0          
T        Si     0.295650000000     0.689150000000     0.323116666667     0          
T        Si     0.295350000000     0.609500000000     0.321783333333     0          
T        Si     0.093950000000     0.844200000000     0.238083333333     0          
T        Si     0.158000000000     0.788600000000     0.240150000000     0          
T        Si     0.204350000000     0.810850000000     0.323116666667     0          
T        Si     0.204650000000     0.890500000000     0.321783333333     0          
T        Si     0.156050000000     0.594200000000     0.428583333333     0          
T        Si     0.092000000000     0.538600000000     0.426516666667     0          
T        Si     0.045650000000     0.560850000000     0.343550000000     0          
T        Si     0.045350000000     0.640500000000     0.344883333333     0          
T        Si     0.343950000000     0.905800000000     0.428583333333     0          
T        Si     0.408000000000     0.961400000000     0.426516666667     0          
T        Si     0.454350000000     0.939150000000     0.343550000000     0          
T        Si     0.454650000000     0.859500000000     0.344883333333     0          
T        Si     0.156050000000     0.905800000000     0.404750000000     0          
T        Si     0.092000000000     0.961400000000     0.406816666667     0          
T        Si     0.045650000000     0.939150000000     0.489783333333     0          
T        Si     0.045350000000     0.859500000000     0.488450000000     0          
T        Si     0.343950000000     0.594200000000     0.404750000000     0          
T        Si     0.408000000000     0.538600000000     0.406816666667     0          
T        Si     0.454350000000     0.560850000000     0.489783333333     0          
T        Si     0.454650000000     0.640500000000     0.488450000000     0          
T        Si     0.406050000000     0.844200000000     0.428583333333     0          
T        Si     0.342000000000     0.788600000000     0.426516666667     0          
T        Si     0.295650000000     0.810850000000     0.343550000000     0          
T        Si     0.295350000000     0.890500000000     0.344883333333     0          
T        Si     0.093950000000     0.655800000000     0.428583333333     0          
T        Si     0.158000000000     0.711400000000     0.426516666667     0          
T        Si     0.204350000000     0.689150000000     0.343550000000     0          
T        Si     0.204650000000     0.609500000000     0.344883333333     0          
T        Si     0.406050000000     0.655800000000     0.404750000000     0          
T        Si     0.342000000000     0.711400000000     0.406816666667     0          
T        Si     0.295650000000     0.689150000000     0.489783333333     0          
T        Si     0.295350000000     0.609500000000     0.488450000000     0          
T        Si     0.093950000000     0.844200000000     0.404750000000     0          
T        Si     0.158000000000     0.788600000000     0.406816666667     0          
T        Si     0.204350000000     0.810850000000     0.489783333333     0          
T        Si     0.204650000000     0.890500000000     0.488450000000     0          
T        Si     0.156050000000     0.594200000000     0.595250000000     0          
T        Si     0.092000000000     0.538600000000     0.593183333333     0          
T        Si     0.045650000000     0.560850000000     0.510216666667     0          
T        Si     0.045350000000     0.640500000000     0.511550000000     0          
T        Si     0.343950000000     0.905800000000     0.595250000000     0          
T        Si     0.408000000000     0.961400000000     0.593183333333     0          
T        Si     0.454350000000     0.939150000000     0.510216666667     0          
T        Si     0.454650000000     0.859500000000     0.511550000000     0          
T        Si     0.156050000000     0.905800000000     0.571416666667     0          
T        Si     0.092000000000     0.961400000000     0.573483333333     0          
T        Si     0.045650000000     0.939150000000     0.656450000000     0          
T        Si     0.045350000000     0.859500000000     0.655116666667     0          
T        Si     0.343950000000     0.594200000000     0.571416666667     0          
T        Si     0.408000000000     0.538600000000     0.573483333333     0          
T        Si     0.454350000000     0.560850000000     0.656450000000     0          
T        Si     0.454650000000     0.640500000000     0.655116666667     0          
T        Si     0.406050000000     0.844200000000     0.595250000000     0          
T        Si     0.342000000000     0.788600000000     0.593183333333     0          
T        Si     0.295650000000     0.810850000000     0.510216666667     0          
T        Si     0.295350000000     0.890500000000     0.511550000000     0          
T        Si     0.093950000000     0.655800000000     0.595250000000     0          
T        Si     0.158000000000     0.711400000000     0.593183333333     0          
T        Si     0.204350000000     0.689150000000     0.510216666667     0          
T        Si     0.204650000000     0.609500000000     0.511550000000     0          
T        Si     0.406050000000     0.655800000000     0.571416666667     0          
T        Si     0.342000000000     0.711400000000     0.573483333333     0          
T        Si     0.295650000000     0.689150000000     0.656450000000     0          
T        Si     0.295350000000     0.609500000000     0.655116666667     0          
T        Si     0.093950000000     0.844200000000     0.571416666667     0          
T        Si     0.158000000000     0.788600000000     0.573483333333     0          
T        Si     0.204350000000     0.810850000000     0.656450000000     0          
T        Si     0.204650000000     0.890500000000     0.655116666667     0          
T        Si     0.156050000000     0.594200000000     0.761916666667     0          
T        Si     0.092000000000     0.538600000000     0.759850000000     0          
T        Si     0.045650000000     0.560850000000     0.676883333333     0          
T        Si     0.045350000000     0.640500000000     0.678216666667     0          
T        Si     0.343950000000     0.905800000000     0.761916666667     0          
T        Si     0.408000000000     0.961400000000     0.759850000000     0          
T        Si     0.454350000000     0.939150000000     0.676883333333     0          
T        Si     0.454650000000     0.859500000000     0.678216666667     0          
T        Si     0.156050000000     0.905800000000     0.738083333333     0          
T        Si     0.092000000000     0.961400000000     0.740150000000     0          
T        Si     0.045650000000     0.939150000000     0.823116666667     0          
T        Si     0.045350000000     0.859500000000     0.821783333333     0          
T        Si     0.343950000000     0.594200000000     0.738083333333     0          
T        Si     0.408000000000     0.538600000000     0.740150000000     0          
T        Si     0.454350000000     0.560850000000     0.823116666667     0          
T        Si     0.454650000000     0.640500000000     0.821783333333     0          
T        Si     0.406050000000     0.844200000000     0.761916666667     0          
T        Si     0.342000000000     0.788600000000     0.759850000000     0          
T        Si     0.295650000000     0.810850000000     0.676883333333     0          
T        Si     0.295350000000     0.890500000000     0.678216666667     0          
T        Si     0.093950000000     0.655800000000     0.761916666667     0          
T        Si     0.158000000000     0.711400000000     0.759850000000     0          
T        Si     0.204350000000     0.689150000000     0.676883333333     0          
T        Si     0.204650000000     0.609500000000     0.678216666667     0          
T        Si     0.406050000000     0.655800000000     0.738083333333     0          
T        Si     0.342000000000     0.711400000000     0.740150000000     0          
T        Si     0.295650000000     0.689150000000     0.823116666667     0          
T        Si     0.295350000000     0.609500000000     0.821783333333     0          
T        Si     0.093950000000     0.844200000000     0.738083333333     0          
T        Si     0.158000000000     0.788600000000     0.740150000000     0          
T        Si     0.204350000000     0.810850000000     0.823116666667     0          
T        Si     0.204650000000     0.890500000000     0.821783333333     0          
T        Si     0.156050000000     0.594200000000     0.928583333333     0          
T        Si     0.092000000000     0.538600000000     0.926516666667     0          
T        Si     0.045650000000     0.560850000000     0.843550000000     0          
T        Si     0.045350000000     0.640500000000     0.844883333333     0          
T        Si     0.343950000000     0.905800000000     0.928583333333     0          
T        Si     0.408000000000     0.961400000000     0.926516666667     0          
T        Si     0.454350000000     0.939150000000     0.843550000000     0          
T        Si     0.454650000000     0.859500000000     0.844883333333     0          
T        Si     0.156050000000     0.905800000000     0.904750000000     0          
T        Si     0.092000000000     0.961400000000     0.906816666667     0          
T        Si     0.045650000000     0.939150000000     0.989783333333     0          
T        Si     0.045350000000     0.859500000000     0.988450000000     0          
T        Si     0.343950000000     0.594200000000     0.904750000000     0          
T        Si     0.408000000000     0.538600000000     0.906816666667     0          
T        Si     0.454350000000     0.560850000000     0.989783333333     0          
T        Si     0.454650000000     0.640500000000     0.988450000000     0          
T        Si     0.406050000000     0.844200000000     0.928583333333     0          
T        Si     0.342000000000     0.788600000000     0.926516666667     0          
T        Si     0.295650000000     0.810850000000     0.843550000000     0          
T        Si     0.295350000000     0.890500000000     0.844883333333     0          
T        Si     0.093950000000     0.655800000000     0.928583333333     0          
T        Si     0.158000000000     0.711400000000     0.926516666667     0          
T        Si     0.204350000000     0.689150000000     0.843550000000     0          
T        Si     0.204650000000     0.609500000000     0.844883333333     0          
T        Si     0.406050000000     0.655800000000     0.904750000000     0          
T        Si     0.342000000000     0.711400000000     0.906816666667     0          
T        Si     0.295650000000     0.689150000000     0.989783333333     0          
T        Si     0.295350000000     0.609500000000     0.988450000000     0          
T        Si     0.093950000000     0.844200000000     0.904750000000     0          
T        Si     0.158000000000     0.788600000000     0.906816666667     0          
T        Si     0.204350000000     0.810850000000     0.989783333333     0          
T        Si     0.204650000000     0.890500000000     0.988450000000     0          
T        Si     0.656050000000     0.094200000000     0.095250000000     0          
T        Si     0.592000000000     0.038600000000     0.093183333333     0          
T        Si     0.545650000000     0.060850000000     0.010216666667     0          
T        Si     0.545350000000     0.140500000000     0.011550000000     0          
T        Si     0.843950000000     0.405800000000     0.095250000000     0          
T        Si     0.908000000000     0.461400000000     0.093183333333     0          
T        Si     0.954350000000     0.439150000000     0.010216666667     0          
T        Si     0.954650000000     0.359500000000     0.011550000000     0          
T        Si     0.656050000000     0.405800000000     0.071416666667     0          
T        Si     0.592000000000     0.461400000000     0.073483333333     0          
T        Si     0.545650000000     0.439150000000     0.156450000000     0          
T        Si     0.545350000000     0.359500000000     0.155116666667     0          
T        Si     0.843950000000     0.094200000000     0.071416666667     0          
T        Si     0.908000000000     0.038600000000     0.073483333333     0          
T        Si     0.954350000000     0.060850000000     0.156450000000     0          
T        Si     0.954650000000     0.140500000000     0.155116666667     0          
T        Si     0.906050000000     0.344200000000     0.095250000000     0          
T        Si     0.842000000000     0.288600000000     0.093183333333     0          
T        Si     0.795650000000     0.310850000000     0.010216666667     0          
T        Si     0.795350000000     0.390500000000     0.011550000000     0          
T        Si     0.593950000000     0.155800000000     0.095250000000     0          
T        Si     0.658000000000     0.211400000000     0.093183333333     0          
T        Si     0.704350000000     0.189150000000     0.010216666667     0          
T        Si     0.704650000000     0.109500000000     0.011550000000     0          
T        Si     0.906050000000     0.155800000000     0.071416666667     0          
T        Si     0.842000000000     0.211400000000     0.073483333333     0          
T        Si     0.795650000000     0.189150000000     0.156450000000     0          
T        Si     0.795350000000     0.109500000000     0.155116666667     0          
T        Si     0.593950000000     0.344200000000     0.071416666667     0          
T        Si     0.658000000000     0.288600000000     0.073483333333     0          
T        Si     0.704350000000     0.310850000000     0.156450000000     0          
T        Si     0.704650000000     0.390500000000     0.155116666667     0          
T        Si     0.656050000000     0.094200000000     0.261916666667     0          
T        Si     0.592000000000     0.038600000000     0.259850000000     0          
T        Si     0.545650000000     0.060850000000     0.176883333333     0          
T        Si     0.545350000000     0.140500000000     0.178216666667     0          
T        Si     0.843950000000     0.405800000000     0.261916666667     0          
T        Si     0.908000000000     0.461400000000     0.259850000000     0          
T        Si     0.954350000000     0.439150000000     0.176883333333     0          
T        Si     0.954650000000     0.359500000000     0.178216666667     0          
T        Si     0.656050000000     0.405800000000     0.238083333333     0          
T        Si     0.592000000000     0.461400000000     0.240150000000     0          
T        Si     0.545650000000     0.439150000000     0.323116666667     0          
T        Si     0.545350000000     0.359500000000     0.321783333333     0          
T        Si     0.843950000000     0.094200000000     0.238083333333     0          
T        Si     0.908000000000     0.038600000000     0.240150000000     0          
T        Si     0.954350000000     0.060850000000     0.323116666667     0          
T        Si     0.954650000000     0.140500000000     0.321783333333     0          
T        Si     0.906050000000     0.344200000000     0.261916666667     0          
T        Si     0.842000000000     0.288600000000     0.259850000000     0          
T        Si     0.795650000000     0.310850000000     0.176883333333     0          
T        Si     0.795350000000     0.390500000000     0.178216666667     0          
T        Si     0.593950000000     0.155800000000     0.261916666667     0          
T        Si     0.658000000000     0.211400000000     0.259850000000     0          
T        Si     0.704350000000     0.189150000000     0.176883333333     0          
T        Si     0.704650000000     0.109500000000     0.178216666667     0          
T        Si     0.906050000000     0.155800000000     0.238083333333     0          
T        Si     0.842000000000     0.211400000000     0.240150000000     0          
T        Si     0.795650000000     0.189150000000     0.323116666667     0          
T        Si     0.795350000000     0.109500000000     0.321783333333     0          
T        Si     0.593950000000     0.344200000000     0.238083333333     0          
T        Si     0.658000000000     0.288600000000     0.240150000000     0          
T        Si     0.704350000000     0.310850000000     0.323116666667     0          
T        Si     0.704650000000     0.390500000000     0.321783333333     0          
T        Si     0.656050000000     0.094200000000     0.428583333333     0          
T        Si     0.592000000000     0.038600000000     0.426516666667     0          
T        Si     0.545650000000     0.060850000000     0.343550000000     0          
T        Si     0.545350000000     0.140500000000     0.344883333333     0          
T        Si     0.843950000000     0.405800000000     0.428583333333     0          
T        Si     0.908000000000     0.461400000000     0.426516666667     0          
T        Si     0.954350000000     0.439150000000     0.343550000000     0          
T        Si     0.954650000000     0.359500000000     0.344883333333     0          
T        Si     0.656050000000     0.405800000000     0.404750000000     0          
T        Si     0.592000000000     0.461400000000     0.406816666667     0          
T        Si     0.545650000000     0.439150000000     0.489783333333     0          
T        Si     0.545350000000     0.359500000000     0.488450000000     0          
T        Si     0.843950000000     0.094200000000     0.404750000000     0          
T        Si     0.908000000000     0.038600000000     0.406816666667     0          
T        Si     0.954350000000     0.060850000000     0.489783333333     0          
T        Si     0.954650000000     0.140500000000     0.488450000000     0          
T        Si     0.906050000000     0.344200000000     0.428583333333     0          
T        Si     0.842000000000     0.288600000000     0.426516666667     0          
T        Si     0.795650000000     0.310850000000     0.343550000000     0          
T        Si     0.795350000000     0.390500000000     0.344883333333     0          
T        Si     0.593950000000     0.155800000000     0.428583333333     0          
T        Si     0.658000000000     0.211400000000     0.426516666667     0          
T        Si     0.704350000000     0.189150000000     0.343550000000     0          
T        Si     0.704650000000     0.109500000000     0.344883333333     0          
T        Si     0.906050000000     0.155800000000     0.404750000000     0          
T        Si     0.842000000000     0.211400000000     0.406816666667     0          
T        Si     0.795650000000     0.189150000000     0.489783333333     0          
T        Si     0.795350000000     0.109500000000     0.488450000000     0          
T        Si     0.593950000000     0.344200000000     0.404750000000     0          
T        Si     0.658000000000     0.288600000000     0.406816666667     0          
T        Si     0.704350000000     0.310850000000     0.489783333333     0          
T        Si     0.704650000000     0.390500000000     0.488450000000     0          
T        Si     0.656050000000     0.094200000000     0.595250000000     0          
T        Si     0.592000000000     0.038600000000     0.593183333333     0          
T        Si     0.545650000000     0.060850000000     0.510216666667     0          
T        Si     0.545350000000     0.140500000000     0.511550000000     0          
T        Si     0.843950000000     0.405800000000     0.595250000000     0          
T        Si     0.908000000000     0.461400000000     0.593183333333     0          
T        Si     0.954350000000     0.439150000000     0.510216666667     0          
T        Si     0.954650000000     0.359500000000     0.511550000000     0          
T        Si     0.656050000000     0.405800000000     0.571416666667     0          
T        Si     0.592000000000     0.461400000000     0.573483333333     0          
T        Si     0.545650000000     0.439150000000     0.656450000000     0          
T        Si     0.545350000000     0.359500000000     0.655116666667     0          
T        Si     0.843950000000     0.094200000000     0.571416666667     0          
T        Si     0.908000000000     0.038600000000     0.573483333333     0          
T        Si     0.954350000000     0.060850000000     0.656450000000     0          
T        Si     0.954650000000     0.140500000000     0.655116666667     0          
T        Si     0.906050000000     0.344200000000     0.595250000000     0          
T        Si     0.842000000000     0.288600000000     0.593183333333     0          
T        Si     0.795650000000     0.310850000000     0.510216666667     0          
T        Si     0.795350000000     0.390500000000     0.511550000000     0          
T        Si     0.593950000000     0.155800000000     0.595250000000     0          
T        Si     0.658000000000     0.211400000000     0.593183333333     0          
T        Si     0.704350000000     0.189150000000     0.510216666667     0          
T        Si     0.704650000000     0.109500000000     0.511550000000     0          
T        Si     0.906050000000     0.155800000000     0.571416666667     0          
T        Si     0.842000000000     0.211400000000     0.573483333333     0          
T        Si     0.795650000000     0.189150000000     0.656450000000     0          
T        Si     0.795350000000     0.109500000000     0.655116666667     0          
T        Si     0.593950000000     0.344200000000     0.571416666667     0          
T        Si     0.658000000000     0.288600000000     0.573483333333     0          
T        Si     0.704350000000     0.310850000000     0.656450000000     0          
T        Si     0.704650000000     0.390500000000     0.655116666667     0          
T        Si     0.656050000000     0.094200000000     0.761916666667     0          
T        Si     0.592000000000     0.038600000000     0.759850000000     0          
T        Si     0.545650000000     0.060850000000     0.676883333333     0          
T        Si     0.545350000000     0.140500000000     0.678216666667     0          
T        Si     0.843950000000     0.405800000000     0.761916666667     0          
T        Si     0.908000000000     0.461400000000     0.759850000000     0          
T        Si     0.954350000000     0.439150000000     0.676883333333     0          
T        Si     0.954650000000     0.359500000000     0.678216666667     0          
T        Si     0.656050000000     0.405800000000     0.738083333333     0          
T        Si     0.592000000000     0.461400000000     0.740150000000     0          
T        Si     0.545650000000     0.439150000000     0.823116666667     0          
T        Si     0.545350000000     0.359500000000     0.821783333333     0          
T        Si     0.843950000000     0.094200000000     0.738083333333     0          
T        Si     0.908000000000     0.038600000000     0.740150000000     0          
T        Si     0.954350000000     0.060850000000     0.823116666667     0          
T        Si     0.954650000000     0.140500000000     0.821783333333     0          
T        Si     0.906050000000     0.344200000000     0.761916666667     0          
T        Si     0.842000000000     0.288600000000     0.759850000000     0          
T        Si     0.795650000000     0.310850000000     0.676883333333     0          
T        Si     0.795350000000     0.390500000000     0.678216666667     0          
T        Si     0.593950000000     0.155800000000     0.761916666667     0          
T        Si     0.658000000000     0.211400000000     0.759850000000     0          
T        Si     0.704350000000     0.189150000000     0.676883333333     0          
T        Si     0.704650000000     0.109500000000     0.678216666667     0          
T        Si     0.906050000000     0.155800000000     0.738083333333     0          
T        Si     0.842000000000     0.211400000000     0.740150000000     0          
T        Si     0.795650000000     0.189150000000     0.823116666667     0          
T        Si     0.795350000000     0.109500000000     0.821783333333     0          
T        Si     0.593950000000     0.344200000000     0.738083333333     0          
T        Si     0.658000000000     0.288600000000     0.740150000000     0          
T        Si     0.704350000000     0.310850000000     0.823116666667     0          
T        Si     0.704650000000     0.390500000000     0.821783333333     0          
T        Si     0.656050000000     0.094200000000     0.928583333333     0          
T        Si     0.592000000000     0.038600000000     0.926516666667     0          
T        Si     0.545650000000     0.060850000000     0.843550000000     0          
T        Si     0.545350000000     0.140500000000     0.844883333333     0          
T        Si     0.843950000000     0.405800000000     0.928583333333     0          
T        Si     0.908000000000     0.461400000000     0.926516666667     0          
T        Si     0.954350000000     0.439150000000     0.843550000000     0          
T        Si     0.954650000000     0.359500000000     0.844883333333     0          
T        Si     0.656050000000     0.405800000000     0.904750000000     0          
T        Si     0.592000000000     0.461400000000     0.906816666667     0          
T        Si     0.545650000000     0.439150000000     0.989783333333     0          
T        Si     0.545350000000     0.359500000000     0.988450000000     0          
T        Si     0.843950000000     0.094200000000     0.904750000000     0          
T        Si     0.908000000000     0.038600000000     0.906816666667     0          
T        Si     0.954350000000     0.060850000000     0.989783333333     0          
T        Si     0.954650000000     0.140500000000     0.988450000000     0          
T        Si     0.906050000000     0.344200000000     0.928583333333     0          
T        Si     0.842000000000     0.288600000000     0.926516666667     0          
T        Si     0.795650000000     0.310850000000     0.843550000000     0          
T        Si     0.795350000000     0.390500000000     0.844883333333     0          
T        Si     0.593950000000     0.155800000000     0.928583333333     0          
T        Si     0.658000000000     0.211400000000     0.926516666667     0          
T        Si     0.704350000000     0.189150000000     0.843550000000     0          
T        Si     0.704650000000     0.109500000000     0.844883333333     0          
T        Si     0.906050000000     0.155800000000     0.904750000000     0          
T        Si     0.842000000000     0.211400000000     0.906816666667     0          
T        Si     0.795650000000     0.189150000000     0.989783333333     0          
T        Si     0.795350000000     0.109500000000     0.988450000000     0          
T        Si     0.593950000000     0.344200000000     0.904750000000     0          
T        Si     0.658000000000     0.288600000000     0.906816666667     0          
T        Si     0.704350000000     0.310850000000     0.989783333333     0          
T        Si     0.704650000000     0.390500000000     0.988450000000     0          
T        Si     0.656050000000     0.594200000000     0.095250000000     0          
T        Si     0.592000000000     0.538600000000     0.093183333333     0          
T        Si     0.545650000000     0.560850000000     0.010216666667     0          
T        Si     0.545350000000     0.640500000000     0.011550000000     0          
T        Si     0.843950000000     0.905800000000     0.095250000000     0          
T        Si     0.908000000000     0.961400000000     0.093183333333     0          
T        Si     0.954350000000     0.939150000000     0.010216666667     0          
T        Si     0.954650000000     0.859500000000     0.011550000000     0          
T        Si     0.656050000000     0.905800000000     0.071416666667     0          
T        Si     0.592000000000     0.961400000000     0.073483333333     0          
T        Si     0.545650000000     0.939150000000     0.156450000000     0          
T        Si     0.545350000000     0.859500000000     0.155116666667     0          
T        Si     0.843950000000     0.594200000000     0.071416666667     0          
T        Si     0.908000000000     0.538600000000     0.073483333333     0          
T        Si     0.954350000000     0.560850000000     0.156450000000     0          
T        Si     0.954650000000     0.640500000000     0.155116666667     0          
T        Si     0.906050000000     0.844200000000     0.095250000000     0          
T        Si     0.842000000000     0.788600000000     0.093183333333     0          
T        Si     0.795650000000     0.810850000000     0.010216666667     0          
T        Si     0.795350000000     0.890500000000     0.011550000000     0          
T        Si     0.593950000000     0.655800000000     0.095250000000     0          
T        Si     0.658000000000     0.711400000000     0.093183333333     0          
T        Si     0.704350000000     0.689150000000     0.010216666667     0          
T        Si     0.704650000000     0.609500000000     0.011550000000     0          
T        Si     0.906050000000     0.655800000000     0.071416666667     0          
T        Si     0.842000000000     0.711400000000     0.073483333333     0          
T        Si     0.795650000000     0.689150000000     0.156450000000     0          
T        Si     0.795350000000     0.609500000000     0.155116666667     0          
T        Si     0.593950000000     0.844200000000     0.071416666667     0          
T        Si     0.658000000000     0.788600000000     0.073483333333     0          
T        Si     0.704350000000     0.810850000000     0.156450000000     0          
T        Si     0.704650000000     0.890500000000     0.155116666667     0          
T        Si     0.656050000000     0.594200000000     0.261916666667     0          
T        Si     0.592000000000     0.538600000000     0.259850000000     0          
T        Si     0.545650000000     0.560850000000     0.176883333333     0          
T        Si     0.545350000000     0.640500000000     0.178216666667     0          
T        Si     0.843950000000     0.905800000000     0.261916666667     0          
T        Si     0.908000000000     0.961400000000     0.259850000000     0          
T        Si     0.954350000000     0.939150000000     0.176883333333     0          
T        Si     0.954650000000     0.859500000000     0.178216666667     0          
T        Si     0.656050000000     0.905800000000     0.238083333333     0          
T        Si     0.592000000000     0.961400000000     0.240150000000     0          
T        Si     0.545650000000     0.939150000000     0.323116666667     0          
T        Si     0.545350000000     0.859500000000     0.321783333333     0          
T        Si     0.843950000000     0.594200000000     0.238083333333     0          
T        Si     0.908000000000     0.538600000000     0.240150000000     0          
T        Si     0.954350000000     0.560850000000     0.323116666667     0          
T        Si     0.954650000000     0.640500000000     0.321783333333     0          
T        Si     0.906050000000     0.844200000000     0.261916666667     0          
T        Si     0.842000000000     0.788600000000     0.259850000000     0          
T        Si     0.795650000000     0.810850000000     0.176883333333     0          
T        Si     0.795350000000     0.890500000000     0.178216666667     0          
T        Si     0.593950000000     0.655800000000     0.261916666667     0          
T        Si     0.658000000000     0.711400000000     0.259850000000     0          
T        Si     0.704350000000     0.689150000000     0.176883333333     0          
T        Si     0.704650000000     0.609500000000     0.178216666667     0          
T        Si     0.906050000000     0.655800000000     0.238083333333     0          
T        Si     0.842000000000     0.711400000000     0.240150000000     0          
T        Si     0.795650000000     0.689150000000     0.323116666667     0          
T        Si     0.795350000000     0.609500000000     0.321783333333     0          
T        Si     0.593950000000     0.844200000000     0.238083333333     0          
T        Si     0.658000000000     0.788600000000     0.240150000000     0          
T        Si     0.704350000000     0.810850000000     0.323116666667     0          
T        Si     0.704650000000     0.890500000000     0.321783333333     0          
T        Si     0.656050000000     0.594200000000     0.428583333333     0          
T        Si     0.592000000000     0.538600000000     0.426516666667     0          
T        Si     0.545650000000     0.560850000000     0.343550000000     0          
T        Si     0.545350000000     0.640500000000     0.344883333333     0          
T        Si     0.843950000000     0.905800000000     0.428583333333     0          
T        Si     0.908000000000     0.961400000000     0.426516666667     0          
T        Si     0.954350000000     0.939150000000     0.343550000000     0          
T        Si     0.954650000000     0.859500000000     0.344883333333     0          
T        Si     0.656050000000     0.905800000000     0.404750000000     0          
T        Si     0.592000000000     0.961400000000     0.406816666667     0          
T        Si     0.545650000000     0.939150000000     0.489783333333     0          
T        Si     0.545350000000     0.859500000000     0.488450000000     0          
T        Si     0.843950000000     0.594200000000     0.404750000000     0          
T        Si     0.908000000000     0.538600000000     0.406816666667     0          
T        Si     0.954350000000     0.560850000000     0.489783333333     0          
T        Si     0.954650000000     0.640500000000     0.488450000000     0          
T        Si     0.906050000000     0.844200000000     0.428583333333     0          
T        Si     0.842000000000     0.788600000000     0.426516666667     0          
T        Si     0.795650000000     0.810850000000     0.343550000000     0          
T        Si     0.795350000000     0.890500000000     0.344883333333     0          
T        Si     0.593950000000     0.655800000000     0.428583333333     0          
T        Si     0.658000000000     0.711400000000     0.426516666667     0          
T        Si     0.704350000000     0.689150000000     0.343550000000     0          
T        Si     0.704650000000     0.609500000000     0.344883333333     0          
T        Si     0.906050000000     0.655800000000     0.404750000000     0          
T        Si     0.842000000000     0.711400000000     0.406816666667     0          
T        Si     0.795650000000     0.689150000000     0.489783333333     0          
T        Si     0.795350000000     0.609500000000     0.488450000000     0          
T        Si     0.593950000000     0.844200000000     0.404750000000     0          
T        Si     0.658000000000     0.788600000000     0.406816666667     0          
T        Si     0.704350000000     0.810850000000     0.489783333333     0          
T        Si     0.704650000000     0.890500000000     0.488450000000     0          
T        Si     0.656050000000     0.594200000000     0.595250000000     0          
T        Si     0.592000000000     0.538600000000     0.593183333333     0          
T        Si     0.545650000000     0.560850000000     0.510216666667     0          
T        Si     0.545350000000     0.640500000000     0.511550000000     0          
T        Si     0.843950000000     0.905800000000     0.595250000000     0          
T        Si     0.908000000000     0.961400000000     0.593183333333     0          
T        Si     0.954350000000     0.939150000000     0.510216666667     0          
T        Si     0.954650000000     0.859500000000     0.511550000000     0          
T        Si     0.656050000000     0.905800000000     0.571416666667     0          
T        Si     0.592000000000     0.961400000000     0.573483333333     0          
T        Si     0.545650000000     0.939150000000     0.656450000000     0          
T        Si     0.545350000000     0.859500000000     0.655116666667     0          
T        Si     0.843950000000     0.594200000000     0.571416666667     0          
T        Si     0.908000000000     0.538600000000     0.573483333333     0          
T        Si     0.954350000000     0.560850000000     0.656450000000     0          
T        Si     0.954650000000     0.640500000000     0.655116666667     0          
T        Si     0.906050000000     0.844200000000     0.595250000000     0          
T        Si     0.842000000000     0.788600000000     0.593183333333     0          
T        Si     0.795650000000     0.810850000000     0.510216666667     0          
T        Si     0.795350000000     0.890500000000     0.511550000000     0          
T        Si     0.593950000000     0.655800000000     0.595250000000     0          
T        Si     0.658000000000     0.711400000000     0.593183333333     0          
T        Si     0.704350000000     0.689150000000     0.510216666667     0          
T        Si     0.704650000000     0.609500000000     0.511550000000     0          
T        Si     0.906050000000     0.655800000000     0.571416666667     0          
T        Si     0.842000000000     0.711400000000     0.573483333333     0          
T        Si     0.795650000000     0.689150000000     0.656450000000     0          
T        Si     0.795350000000     0.609500000000     0.655116666667     0          
T        Si     0.593950000000     0.844200000000     0.571416666667     0          
T        Si     0.658000000000     0.788600000000     0.573483333333     0          
T        Si     0.704350000000     0.810850000000     0.656450000000     0          
T        Si     0.704650000000     0.890500000000     0.655116666667     0          
T        Si     0.656050000000     0.594200000000     0.761916666667     0          
T        Si     0.592000000000     0.538600000000     0.759850000000     0          
T        Si     0.545650000000     0.560850000000     0.676883333333     0          
T        Si     0.545350000000     0.640500000000     0.678216666667     0          
T        Si     0.843950000000     0.905800000000     0.761916666667     0          
T        Si     0.908000000000     0.961400000000     0.759850000000     0          
T        Si     0.954350000000     0.939150000000     0.676883333333     0          
T        Si     0.954650000000     0.859500000000     0.678216666667     0          
T        Si     0.656050000000     0.905800000000     0.738083333333     0          
T        Si     0.592000000000     0.961400000000     0.740150000000     0          
T        Si     0.545650000000     0.939150000000     0.823116666667     0          
T        Si     0.545350000000     0.859500000000     0.821783333333     0          
T        Si     0.843950000000     0.594200000000     0.738083333333     0          
T        Si     0.908000000000     0.538600000000     0.740150000000     0          
T        Si     0.954350000000     0.560850000000     0.823116666667     0          
T        Si     0.954650000000     0.640500000000     0.821783333333     0          
T        Si     0.906050000000     0.844200000000     0.761916666667     0          
T        Si     0.842000000000     0.788600000000     0.759850000000     0          
T        Si     0.795650000000     0.810850000000     0.676883333333     0          
T        Si     0.795350000000     0.890500000000     0.678216666667     0          
T        Si     0.593950000000     0.655800000000     0.761916666667     0          
T        Si     0.658000000000     0.711400000000     0.759850000000     0          
T        Si     0.704350000000     0.689150000000     0.676883333333     0          
T        Si     0.704650000000     0.609500000000     0.678216666667     0          
T        Si     0.906050000000     0.655800000000     0.738083333333     0          
T        Si     0.842000000000     0.711400000000     0.740150000000     0          
T        Si     0.795650000000     0.689150000000     0.823116666667     0          
T        Si     0.795350000000     0.609500000000     0.821783333333     0          
T        Si     0.593950000000     0.844200000000     0.738083333333     0          
T        Si     0.658000000000     0.788600000000     0.740150000000     0          
T        Si     0.704350000000     0.810850000000     0.823116666667     0          
T        Si     0.704650000000     0.890500000000     0.821783333333     0          
T        Si     0.656050000000     0.594200000000     0.928583333333     0          
T        Si     0.592000000000     0.538600000000     0.926516666667     0          
T        Si     0.545650000000     0.560850000000     0.843550000000     0          
T        Si     0.545350000000     0.640500000000     0.844883333333     0          
T        Si     0.843950000000     0.905800000000     0.928583333333     0          
T        Si     0.908000000000     0.961400000000     0.926516666667     0          
T        Si     0.954350000000     0.939150000000     0.843550000000     0          
T        Si     0.954650000000     0.859500000000     0.844883333333     0          
T        Si     0.656050000000     0.905800000000     0.904750000000     0          
T        Si     0.592000000000     0.961400000000     0.906816666667     0          
T        Si     0.545650000000     0.939150000000     0.989783333333     0          
T        Si     0.545350000000     0.859500000000     0.988450000000     0          
T        Si     0.843950000000     0.594200000000     0.904750000000     0          
T        Si     0.908000000000     0.538600000000     0.906816666667     0          
T        Si     0.954350000000     0.560850000000     0.989783333333     0          
T        Si     0.954650000000     0.640500000000     0.988450000000     0          
T        Si     0.906050000000     0.844200000000     0.928583333333     0          
T        Si     0.842000000000     0.788600000000     0.926516666667     0          
T        Si     0.795650000000     0.810850000000     0.843550000000     0          
T        Si     0.795350000000     0.890500000000     0.844883333333     0          
T        Si     0.593950000000     0.655800000000     0.928583333333     0          
T        Si     0.658000000000     0.711400000000     0.926516666667     0          
T        Si     0.704350000000     0.689150000000     0.843550000000     0          
T        Si     0.704650000000     0.609500000000     0.844883333333     0          
T        Si     0.906050000000     0.655800000000     0.904750000000     0          
T        Si     0.842000000000     0.711400000000     0.906816666667     0          
T        Si     0.795650000000     0.689150000000     0.989783333333     0          
T        Si     0.795350000000     0.609500000000     0.988450000000     0          
T        Si     0.593950000000     0.844200000000     0.904750000000     0          
T        Si     0.658000000000     0.788600000000     0.906816666667     0          
T        Si     0.704350000000     0.810850000000     0.989783333333     0          
T        Si     0.704650000000     0.890500000000     0.988450000000     0          
O        O      0.172900000000     0.091900000000     0.145100000000     0          
O        O      0.193450000000     0.099600000000     0.061616666667     0          
O        O      0.125000000000     0.125000000000     0.090983333333     0          
O        O      0.132500000000     0.060100000000     0.083800000000     0          
O        O      0.077300000000     0.043450000000     0.143483333333     0          
O        O      0.101600000000     0.000000000000     0.083333333333     0          
O        O      0.056550000000     0.051050000000     0.060383333333     0          
O        O      0.000000000000     0.048350000000     0.000000000000     0          
O        O      0.047950000000     0.100750000000     0.005066666667     0          
O        O      0.000000000000     0.153050000000     0.000000000000     0          
O        O      0.327100000000     0.408100000000     0.145100000000     0          
O        O      0.306550000000     0.400400000000     0.061616666667     0          
O        O      0.375000000000     0.375000000000     0.090983333333     0          
O        O      0.367500000000     0.439900000000     0.083800000000     0          
O        O      0.422700000000     0.456550000000     0.143483333333     0          
O        O      0.398400000000     0.000000000000     0.083333333333     0          
O        O      0.443450000000     0.448950000000     0.060383333333     0          
O        O      0.000000000000     0.451650000000     0.000000000000     0          
O        O      0.452050000000     0.399250000000     0.005066666667     0          
O        O      0.000000000000     0.346950000000     0.000000000000     0          
O        O      0.172900000000     0.408100000000     0.021566666667     0          
O        O      0.193450000000     0.400400000000     0.105050000000     0          
O        O      0.125000000000     0.375000000000     0.075683333333     0          
O        O      0.132500000000     0.439900000000     0.082866666667     0          
O        O      0.077300000000     0.456550000000     0.023183333333     0          
O        O      0.056550000000     0.448950000000     0.106283333333     0          
O        O      0.047950000000     0.399250000000     0.161600000000     0          
O        O      0.327100000000     0.091900000000     0.021566666667     0          
O        O      0.306550000000     0.099600000000     0.105050000000     0          
O        O      0.375000000000     0.125000000000     0.075683333333     0          
O        O      0.367500000000     0.060100000000     0.082866666667     0          
O        O      0.422700000000     0.043450000000     0.023183333333     0          
O        O      0.443450000000     0.051050000000     0.106283333333     0          
O        O      0.452050000000     0.100750000000     0.161600000000     0          
O        O      0.422900000000     0.341900000000     0.145100000000     0          
O        O      0.443450000000     0.349600000000     0.061616666667     0          
O        O      0.382500000000     0.310100000000     0.083800000000     0          
O        O      0.327300000000     0.293450000000     0.143483333333     0          
O        O      0.351600000000     0.250000000000     0.083333333333     0          
O        O      0.306550000000     0.301050000000     0.060383333333     0          
O        O      0.250000000000     0.298350000000     0.000000000000     0          
O        O      0.297950000000     0.350750000000     0.005066666667     0          
O        O      0.250000000000     0.403050000000     0.000000000000     0          
O        O      0.077100000000     0.158100000000     0.145100000000     0          
O        O      0.056550000000     0.150400000000     0.061616666667     0          
O        O      0.117500000000     0.189900000000     0.083800000000     0          
O        O      0.172700000000     0.206550000000     0.143483333333     0          
O        O      0.148400000000     0.250000000000     0.083333333333     0          
O        O      0.193450000000     0.198950000000     0.060383333333     0          
O        O      0.250000000000     0.201650000000     0.000000000000     0          
O        O      0.202050000000     0.149250000000     0.005066666667     0          
O        O      0.250000000000     0.096950000000     0.000000000000     0          
O        O      0.422900000000     0.158100000000     0.021566666667     0          
O        O      0.443450000000     0.150400000000     0.105050000000     0          
O        O      0.382500000000     0.189900000000     0.082866666667     0          
O        O      0.327300000000     0.206550000000     0.023183333333     0          
O        O      0.306550000000     0.198950000000     0.106283333333     0          
O        O      0.297950000000     0.149250000000     0.161600000000     0          
O        O      0.077100000000     0.341900000000     0.021566666667     0          
O        O      0.056550000000     0.349600000000     0.105050000000     0          
O        O      0.117500000000     0.310100000000     0.082866666667     0          
O        O      0.172700000000     0.293450000000     0.023183333333     0          
O        O      0.193450000000     0.301050000000     0.106283333333     0          
O        O      0.202050000000     0.350750000000     0.161600000000     0          
O        O      0.172900000000     0.091900000000     0.311766666667     0          
O        O      0.193450000000     0.099600000000     0.228283333333     0          
O        O      0.125000000000     0.125000000000     0.257650000000     0          
O        O      0.132500000000     0.060100000000     0.250466666667     0          
O        O      0.077300000000     0.043450000000     0.310150000000     0          
O        O      0.101600000000     0.000000000000     0.250000000000     0          
O        O      0.056550000000     0.051050000000     0.227050000000     0          
O        O      0.000000000000     0.048350000000     0.166666666667     0          
O        O      0.047950000000     0.100750000000     0.171733333333     0          
O        O      0.000000000000     0.153050000000     0.166666666667     0          
O        O      0.327100000000     0.408100000000     0.311766666667     0          
O        O      0.306550000000     0.400400000000     0.228283333333     0          
O        O      0.375000000000     0.375000000000     0.257650000000     0          
O        O      0.367500000000     0.439900000000     0.250466666667     0          
O        O      0.422700000000     0.456550000000     0.310150000000     0          
O        O      0.398400000000     0.000000000000     0.250000000000     0          
O        O      0.443450000000     0.448950000000     0.227050000000     0          
O        O      0.000000000000     0.451650000000     0.166666666667     0          
O        O      0.452050000000     0.399250000000     0.171733333333     0          
O        O      0.000000000000     0.346950000000     0.166666666667     0          
O        O      0.172900000000     0.408100000000     0.188233333333     0          
O        O      0.193450000000     0.400400000000     0.271716666667     0          
O        O      0.125000000000     0.375000000000     0.242350000000     0          
O        O      0.132500000000     0.439900000000     0.249533333333     0          
O        O      0.077300000000     0.456550000000     0.189850000000     0          
O        O      0.056550000000     0.448950000000     0.272950000000     0          
O        O      0.047950000000     0.399250000000     0.328266666667     0          
O        O      0.327100000000     0.091900000000     0.188233333333     0          
O        O      0.306550000000     0.099600000000     0.271716666667     0          
O        O      0.375000000000     0.125000000000     0.242350000000     0          
O        O      0.367500000000     0.060100000000     0.249533333333     0          
O        O      0.422700000000     0.043450000000     0.189850000000     0          
O        O      0.443450000000     0.051050000000     0.272950000000     0          
O        O      0.452050000000     0.100750000000     0.328266666667     0          
O        O      0.422900000000     0.341900000000     0.311766666667     0          
O        O      0.443450000000     0.349600000000     0.228283333333     0          
O        O      0.382500000000     0.310100000000     0.250466666667     0          
O        O      0.327300000000     0.293450000000     0.310150000000     0          
O        O      0.351600000000     0.250000000000     0.250000000000     0          
O        O      0.306550000000     0.301050000000     0.227050000000     0          
O        O      0.250000000000     0.298350000000     0.166666666667     0          
O        O      0.297950000000     0.350750000000     0.171733333333     0          
O        O      0.250000000000     0.403050000000     0.166666666667     0          
O        O      0.077100000000     0.158100000000     0.311766666667     0          
O        O      0.056550000000     0.150400000000     0.228283333333     0          
O        O      0.117500000000     0.189900000000     0.250466666667     0          
O        O      0.172700000000     0.206550000000     0.310150000000     0          
O        O      0.148400000000     0.250000000000     0.250000000000     0          
O        O      0.193450000000     0.198950000000     0.227050000000     0          
O        O      0.250000000000     0.201650000000     0.166666666667     0          
O        O      0.202050000000     0.149250000000     0.171733333333     0          
O        O      0.250000000000     0.096950000000     0.166666666667     0          
O        O      0.422900000000     0.158100000000     0.188233333333     0          
O        O      0.443450000000     0.150400000000     0.271716666667     0          
O        O      0.382500000000     0.189900000000     0.249533333333     0          
O        O      0.327300000000     0.206550000000     0.189850000000     0          
O        O      0.306550000000     0.198950000000     0.272950000000     0          
O        O      0.297950000000     0.149250000000     0.328266666667     0          
O        O      0.077100000000     0.341900000000     0.188233333333     0          
O        O      0.056550000000     0.349600000000     0.271716666667     0          
O        O      0.117500000000     0.310100000000     0.249533333333     0          
O        O      0.172700000000     0.293450000000     0.189850000000     0          
O        O      0.193450000000     0.301050000000     0.272950000000     0          
O        O      0.202050000000     0.350750000000     0.328266666667     0          
O        O      0.172900000000     0.091900000000     0.478433333333     0          
O        O      0.193450000000     0.099600000000     0.394950000000     0          
O        O      0.125000000000     0.125000000000     0.424316666667     0          
O        O      0.132500000000     0.060100000000     0.417133333333     0          
O        O      0.077300000000     0.043450000000     0.476816666667     0          
O        O      0.101600000000     0.000000000000     0.416666666667     0          
O        O      0.056550000000     0.051050000000     0.393716666667     0          
O        O      0.000000000000     0.048350000000     0.333333333333     0          
O        O      0.047950000000     0.100750000000     0.338400000000     0          
O        O      0.000000000000     0.153050000000     0.333333333333     0          
O        O      0.327100000000     0.408100000000     0.478433333333     0          
O        O      0.306550000000     0.400400000000     0.394950000000     0          
O        O      0.375000000000     0.375000000000     0.424316666667     0          
O        O      0.367500000000     0.439900000000     0.417133333333     0          
O        O      0.422700000000     0.456550000000     0.476816666667     0          
O        O      0.398400000000     0.000000000000     0.416666666667     0          
O        O      0.443450000000     0.448950000000     0.393716666667     0          
O        O      0.000000000000     0.451650000000     0.333333333333     0          
O        O      0.452050000000     0.399250000000     0.338400000000     0          
O        O      0.000000000000     0.346950000000     0.333333333333     0          
O        O      0.172900000000     0.408100000000     0.354900000000     0          
O        O      0.193450000000     0.400400000000     0.438383333333     0          
O        O      0.125000000000     0.375000000000     0.409016666667     0          
O        O      0.132500000000     0.439900000000     0.416200000000     0          
O        O      0.077300000000     0.456550000000     0.356516666667     0          
O        O      0.056550000000     0.448950000000     0.439616666667     0          
O        O      0.047950000000     0.399250000000     0.494933333333     0          
O        O      0.327100000000     0.091900000000     0.354900000000     0          
O        O      0.306550000000     0.099600000000     0.438383333333     0          
O        O      0.375000000000     0.125000000000     0.409016666667     0          
O        O      0.367500000000     0.060100000000     0.416200000000     0          
O        O      0.422700000000     0.043450000000     0.356516666667     0          
O        O      0.443450000000     0.051050000000     0.439616666667     0          
O        O      0.452050000000     0.100750000000     0.494933333333     0          
O        O      0.422900000000     0.341900000000     0.478433333333     0          
O        O      0.443450000000     0.349600000000     0.394950000000     0          
O        O      0.382500000000     0.310100000000     0.417133333333     0          
O        O      0.327300000000     0.293450000000     0.476816666667     0          
O        O      0.351600000000     0.250000000000     0.416666666667     0          
O        O      0.306550000000     0.301050000000     0.393716666667     0          
O        O      0.250000000000     0.298350000000     0.333333333333     0          
O        O      0.297950000000     0.350750000000     0.338400000000     0          
O        O      0.250000000000     0.403050000000     0.333333333333     0          
O        O      0.077100000000     0.158100000000     0.478433333333     0          
O        O      0.056550000000     0.150400000000     0.394950000000     0          
O        O      0.117500000000     0.189900000000     0.417133333333     0          
O        O      0.172700000000     0.206550000000     0.476816666667     0          
O        O      0.148400000000     0.250000000000     0.416666666667     0          
O        O      0.193450000000     0.198950000000     0.393716666667     0          
O        O      0.250000000000     0.201650000000     0.333333333333     0          
O        O      0.202050000000     0.149250000000     0.338400000000     0          
O        O      0.250000000000     0.096950000000     0.333333333333     0          
O        O      0.422900000000     0.158100000000     0.354900000000     0          
O        O      0.443450000000     0.150400000000     0.438383333333     0          
O        O      0.382500000000     0.189900000000     0.416200000000     0          
O        O      0.327300000000     0.206550000000     0.356516666667     0          
O        O      0.306550000000     0.198950000000     0.439616666667     0          
O        O      0.297950000000     0.149250000000     0.494933333333     0          
O        O      0.077100000000     0.341900000000     0.354900000000     0          
O        O      0.056550000000     0.349600000000     0.438383333333     0          
O        O      0.117500000000     0.310100000000     0.416200000000     0          
O        O      0.172700000000     0.293450000000     0.356516666667     0          
O        O      0.193450000000     0.301050000000     0.439616666667     0          
O        O      0.202050000000     0.350750000000     0.494933333333     0          
O        O      0.172900000000     0.091900000000     0.645100000000     0          
O        O      0.193450000000     0.099600000000     0.561616666667     0          
O        O      0.125000000000     0.125000000000     0.590983333333     0          
O        O      0.132500000000     0.060100000000     0.583800000000     0          
O        O      0.077300000000     0.043450000000     0.643483333333     0          
O        O      0.101600000000     0.000000000000     0.583333333333     0          
O        O      0.056550000000     0.051050000000     0.560383333333     0          
O        O      0.000000000000     0.048350000000     0.500000000000     0          
O        O      0.047950000000     0.100750000000     0.505066666667     0          
O        O      0.000000000000     0.153050000000     0.500000000000     0          
O        O      0.327100000000     0.408100000000     0.645100000000     0          
O        O      0.306550000000     0.400400000000     0.561616666667     0          
O        O      0.375000000000     0.375000000000     0.590983333333     0          
O        O      0.367500000000     0.439900000000     0.583800000000     0          
O        O      0.422700000000     0.456550000000     0.643483333333     0          
O        O      0.398400000000     0.000000000000     0.583333333333     0          
O        O      0.443450000000     0.448950000000     0.560383333333     0          
O        O      0.000000000000     0.451650000000     0.500000000000     0          
O        O      0.452050000000     0.399250000000     0.505066666667     0          
O        O      0.000000000000     0.346950000000     0.500000000000     0          
O        O      0.172900000000     0.408100000000     0.521566666667     0          
O        O      0.193450000000     0.400400000000     0.605050000000     0          
O        O      0.125000000000     0.375000000000     0.575683333333     0          
O        O      0.132500000000     0.439900000000     0.582866666667     0          
O        O      0.077300000000     0.456550000000     0.523183333333     0          
O        O      0.056550000000     0.448950000000     0.606283333333     0          
O        O      0.047950000000     0.399250000000     0.661600000000     0          
O        O      0.327100000000     0.091900000000     0.521566666667     0          
O        O      0.306550000000     0.099600000000     0.605050000000     0          
O        O      0.375000000000     0.125000000000     0.575683333333     0          
O        O      0.367500000000     0.060100000000     0.582866666667     0          
O        O      0.422700000000     0.043450000000     0.523183333333     0          
O        O      0.443450000000     0.051050000000     0.606283333333     0          
O        O      0.452050000000     0.100750000000     0.661600000000     0          
O        O      0.422900000000     0.341900000000     0.645100000000     0          
O        O      0.443450000000     0.349600000000     0.561616666667     0          
O        O      0.382500000000     0.310100000000     0.583800000000     0          
O        O      0.327300000000     0.293450000000     0.643483333333     0          
O        O      0.351600000000     0.250000000000     0.583333333333     0          
O        O      0.306550000000     0.301050000000     0.560383333333     0          
O        O      0.250000000000     0.298350000000     0.500000000000     0          
O        O      0.297950000000     0.350750000000     0.505066666667     0          
O        O      0.250000000000     0.403050000000     0.500000000000     0          
O        O      0.077100000000     0.158100000000     0.645100000000     0          
O        O      0.056550000000     0.150400000000     0.561616666667     0          
O        O      0.117500000000     0.189900000000     0.583800000000     0          
O        O      0.172700000000     0.206550000000     0.643483333333     0          
O        O      0.148400000000     0.250000000000     0.583333333333     0          
O        O      0.193450000000     0.198950000000     0.560383333333     0          
O        O      0.250000000000     0.201650000000     0.500000000000     0          
O        O      0.202050000000     0.149250000000     0.505066666667     0          
O        O      0.250000000000     0.096950000000     0.500000000000     0          
O        O      0.422900000000     0.158100000000     0.521566666667     0          
O        O      0.443450000000     0.150400000000     0.605050000000     0          
O        O      0.382500000000     0.189900000000     0.582866666667     0          
O        O      0.327300000000     0.206550000000     0.523183333333     0          
O        O      0.306550000000     0.198950000000     0.606283333333     0          
O        O      0.297950000000     0.149250000000     0.661600000000     0          
O        O      0.077100000000     0.341900000000     0.521566666667     0          
O        O      0.056550000000     0.349600000000     0.605050000000     0          
O        O      0.117500000000     0.310100000000     0.582866666667     0          
O        O      0.172700000000     0.293450000000     0.523183333333     0          
O        O      0.193450000000     0.301050000000     0.606283333333     0          
O        O      0.202050000000     0.350750000000     0.661600000000     0          
O        O      0.172900000000     0.091900000000     0.811766666667     0          
O        O      0.193450000000     0.099600000000     0.728283333333     0          
O        O      0.125000000000     0.125000000000     0.757650000000     0          
O        O      0.132500000000     0.060100000000     0.750466666667     0          
O        O      0.077300000000     0.043450000000     0.810150000000     0          
O        O      0.101600000000     0.000000000000     0.750000000000     0          
O        O      0.056550000000     0.051050000000     0.727050000000     0          
O        O      0.000000000000     0.048350000000     0.666666666667     0          
O        O      0.047950000000     0.100750000000     0.671733333333     0          
O        O      0.000000000000     0.153050000000     0.666666666667     0          
O        O      0.327100000000     0.408100000000     0.811766666667     0          
O        O      0.306550000000     0.400400000000     0.728283333333     0          
O        O      0.375000000000     0.375000000000     0.757650000000     0          
O        O      0.367500000000     0.439900000000     0.750466666667     0          
O        O      0.422700000000     0.456550000000     0.810150000000     0          
O        O      0.398400000000     0.000000000000     0.750000000000     0          
O        O      0.443450000000     0.448950000000     0.727050000000     0          
O        O      0.000000000000     0.451650000000     0.666666666667     0          
O        O      0.452050000000     0.399250000000     0.671733333333     0          
O        O      0.000000000000     0.346950000000     0.666666666667     0          
O        O      0.172900000000     0.408100000000     0.688233333333     0          
O        O      0.193450000000     0.400400000000     0.771716666667     0          
O        O      0.125000000000     0.375000000000     0.742350000000     0          
O        O      0.132500000000     0.439900000000     0.749533333333     0          
O        O      0.077300000000     0.456550000000     0.689850000000     0          
O        O      0.056550000000     0.448950000000     0.772950000000     0          
O        O      0.047950000000     0.399250000000     0.828266666667     0          
O        O      0.327100000000     0.091900000000     0.688233333333     0          
O        O      0.306550000000     0.099600000000     0.771716666667     0          
O        O      0.375000000000     0.125000000000     0.742350000000     0          
O        O      0.367500000000     0.060100000000     0.749533333333     0          
O        O      0.422700000000     0.043450000000     0.689850000000     0          
O        O      0.443450000000     0.051050000000     0.772950000000     0          
O        O      0.452050000000     0.100750000000     0.828266666667     0          
O        O      0.422900000000     0.341900000000     0.811766666667     0          
O        O      0.443450000000     0.349600000000     0.728283333333     0          
O        O      0.382500000000     0.310100000000     0.750466666667     0          
O        O      0.327300000000     0.293450000000     0.810150000000     0          
O        O      0.351600000000     0.250000000000     0.750000000000     0          
O        O      0.306550000000     0.301050000000     0.727050000000     0          
O        O      0.250000000000     0.298350000000     0.666666666667     0          
O        O      0.297950000000     0.350750000000     0.671733333333     0          
O        O      0.250000000000     0.403050000000     0.666666666667     0          
O        O      0.077100000000     0.158100000000     0.811766666667     0          
O        O      0.056550000000     0.150400000000     0.728283333333     0          
O        O      0.117500000000     0.189900000000     0.750466666667     0          
O        O      0.172700000000     0.206550000000     0.810150000000     0          
O        O      0.148400000000     0.250000000000     0.750000000000     0          
O        O      0.193450000000     0.198950000000     0.727050000000     0          
O        O      0.250000000000     0.201650000000     0.666666666667     0          
O        O      0.202050000000     0.149250000000     0.671733333333     0          
O        O      0.250000000000     0.096950000000     0.666666666667     0          
O        O      0.422900000000     0.158100000000     0.688233333333     0          
O        O      0.443450000000     0.150400000000     0.771716666667     0          
O        O      0.382500000000     0.189900000000     0.749533333333     0          
O        O      0.327300000000     0.206550000000     0.689850000000     0          
O        O      0.306550000000     0.198950000000     0.772950000000     0          
O        O      0.297950000000     0.149250000000     0.828266666667     0          
O        O      0.077100000000     0.341900000000     0.688233333333     0          
O        O      0.056550000000     0.349600000000     0.771716666667     0          
O        O      0.117500000000     0.310100000000     0.749533333333     0          
O        O      0.172700000000     0.293450000000     0.689850000000     0          
O        O      0.193450000000     0.301050000000     0.772950000000     0          
O        O      0.202050000000     0.350750000000     0.828266666667     0          
O        O      0.172900000000     0.091900000000     0.978433333333     0          
O        O      0.193450000000     0.099600000000     0.894950000000     0          
O        O      0.125000000000     0.125000000000     0.924316666667     0          
O        O      0.132500000000     0.060100000000     0.917133333333     0          
O        O      0.077300000000     0.043450000000     0.976816666667     0          
O        O      0.101600000000     0.000000000000     0.916666666667     0          
O        O      0.056550000000     0.051050000000     0.893716666667     0          
O        O      0.000000000000     0.048350000000     0.833333333333     0          
O        O      0.047950000000     0.100750000000     0.838400000000     0          
O        O      0.000000000000     0.153050000000     0.833333333333     0          
O        O      0.327100000000     0.408100000000     0.978433333333     0          
O        O      0.306550000000     0.400400000000     0.894950000000     0          
O        O      0.375000000000     0.375000000000     0.924316666667     0          
O        O      0.367500000000     0.439900000000     0.917133333333     0          
O        O      0.422700000000     0.456550000000     0.976816666667     0          
O        O      0.398400000000     0.000000000000     0.916666666667     0          
O        O      0.443450000000     0.448950000000     0.893716666667     0          
O        O      0.000000000000     0.451650000000     0.833333333333     0          
O        O      0.452050000000     0.399250000000     0.838400000000     0          
O        O      0.000000000000     0.346950000000     0.833333333333     0          
O        O      0.172900000000     0.408100000000     0.854900000000     0          
O        O      0.193450000000     0.400400000000     0.938383333333     0          
O        O      0.125000000000     0.375000000000     0.909016666667     0          
O        O      0.132500000000     0.439900000000     0.916200000000     0          
O        O      0.077300000000     0.456550000000     0.856516666667     0          
O        O      0.056550000000     0.448950000000     0.939616666667     0          
O        O      0.047950000000     0.399250000000     0.994933333333     0          
O        O      0.327100000000     0.091900000000     0.854900000000     0          
O        O      0.306550000000     0.099600000000     0.938383333333     0          
O        O      0.375000000000     0.125000000000     0.909016666667     0          
O        O      0.367500000000     0.060100000000     0.916200000000     0          
O        O      0.422700000000     0.043450000000     0.856516666667     0          
O        O      0.443450000000     0.051050000000     0.939616666667     0          
O        O      0.452050000000     0.100750000000     0.994933333333     0          
O        O      0.422900000000     0.341900000000     0.978433333333     0          
O        O      0.443450000000     0.349600000000     0.894950000000     0          
O        O      0.382500000000     0.310100000000     0.917133333333     0          
O        O      0.327300000000     0.293450000000     0.976816666667     0          
O        O      0.351600000000     0.250000000000     0.916666666667     0          
O        O      0.306550000000     0.301050000000     0.893716666667     0          
O        O      0.250000000000     0.298350000000     0.833333333333     0          
O        O      0.297950000000     0.350750000000     0.838400000000     0          
O        O      0.250000000000     0.403050000000     0.833333333333     0          
O        O      0.077100000000     0.158100000000     0.978433333333     0          
O        O      0.056550000000     0.150400000000     0.894950000000     0          
O        O      0.117500000000     0.189900000000     0.917133333333     0          
O        O      0.172700000000     0.206550000000     0.976816666667     0          
O        O      0.148400000000     0.250000000000     0.916666666667     0          
O        O      0.193450000000     0.198950000000     0.893716666667     0          
O        O      0.250000000000     0.201650000000     0.833333333333     0          
O        O      0.202050000000     0.149250000000     0.838400000000     0          
O        O      0.250000000000     0.096950000000     0.833333333333     0          
O        O      0.422900000000     0.158100000000     0.854900000000     0          
O        O      0.443450000000     0.150400000000     0.938383333333     0          
O        O      0.382500000000     0.189900000000     0.916200000000     0          
O        O      0.327300000000     0.206550000000     0.856516666667     0          
O        O      0.306550000000     0.198950000000     0.939616666667     0          
O        O      0.297950000000     0.149250000000     0.994933333333     0          
O        O      0.077100000000     0.341900000000     0.854900000000     0          
O        O      0.056550000000     0.349600000000     0.938383333333     0          
O        O      0.117500000000     0.310100000000     0.916200000000     0          
O        O      0.172700000000     0.293450000000     0.856516666667     0          
O        O      0.193450000000     0.301050000000     0.939616666667     0          
O        O      0.202050000000     0.350750000000     0.994933333333     0          
O        O      0.172900000000     0.591900000000     0.145100000000     0          
O        O      0.193450000000     0.599600000000     0.061616666667     0          
O        O      0.125000000000     0.625000000000     0.090983333333     0          
O        O      0.132500000000     0.560100000000     0.083800000000     0          
O        O      0.077300000000     0.543450000000     0.143483333333     0          
O        O      0.101600000000     0.500000000000     0.083333333333     0          
O        O      0.056550000000     0.551050000000     0.060383333333     0          
O        O      0.000000000000     0.548350000000     0.000000000000     0          
O        O      0.047950000000     0.600750000000     0.005066666667     0          
O        O      0.000000000000     0.653050000000     0.000000000000     0          
O        O      0.327100000000     0.908100000000     0.145100000000     0          
O        O      0.306550000000     0.900400000000     0.061616666667     0          
O        O      0.375000000000     0.875000000000     0.090983333333     0          
O        O      0.367500000000     0.939900000000     0.083800000000     0          
O        O      0.422700000000     0.956550000000     0.143483333333     0          
O        O      0.398400000000     0.500000000000     0.083333333333     0          
O        O      0.443450000000     0.948950000000     0.060383333333     0          
O        O      0.000000000000     0.951650000000     0.000000000000     0          
O        O      0.452050000000     0.899250000000     0.005066666667     0          
O        O      0.000000000000     0.846950000000     0.000000000000     0          
O        O      0.172900000000     0.908100000000     0.021566666667     0          
O        O      0.193450000000     0.900400000000     0.105050000000     0          
O        O      0.125000000000     0.875000000000     0.075683333333     0          
O        O      0.132500000000     0.939900000000     0.082866666667     0          
O        O      0.077300000000     0.956550000000     0.023183333333     0          
O        O      0.056550000000     0.948950000000     0.106283333333     0          
O        O      0.047950000000     0.899250000000     0.161600000000     0          
O        O      0.327100000000     0.591900000000     0.021566666667     0          
O        O      0.306550000000     0.599600000000     0.105050000000     0          
O        O      0.375000000000     0.625000000000     0.075683333333     0          
O        O      0.367500000000     0.560100000000     0.082866666667     0          
O        O      0.422700000000     0.543450000000     0.023183333333     0          
O        O      0.443450000000     0.551050000000     0.106283333333     0          
O        O      0.452050000000     0.600750000000     0.161600000000     0          
O        O      0.422900000000     0.841900000000     0.145100000000     0          
O        O      0.443450000000     0.849600000000     0.061616666667     0          
O        O      0.382500000000     0.810100000000     0.083800000000     0          
O        O      0.327300000000     0.793450000000     0.143483333333     0          
O        O      0.351600000000     0.750000000000     0.083333333333     0          
O        O      0.306550000000     0.801050000000     0.060383333333     0          
O        O      0.250000000000     0.798350000000     0.000000000000     0          
O        O      0.297950000000     0.850750000000     0.005066666667     0          
O        O      0.250000000000     0.903050000000     0.000000000000     0          
O        O      0.077100000000     0.658100000000     0.145100000000     0          
O        O      0.056550000000     0.650400000000     0.061616666667     0          
O        O      0.117500000000     0.689900000000     0.083800000000     0          
O        O      0.172700000000     0.706550000000     0.143483333333     0          
O        O      0.148400000000     0.750000000000     0.083333333333     0          
O        O      0.193450000000     0.698950000000     0.060383333333     0          
O        O      0.250000000000     0.701650000000     0.000000000000     0          
O        O      0.202050000000     0.649250000000     0.005066666667     0          
O        O      0.250000000000     0.596950000000     0.000000000000     0          
O        O      0.422900000000     0.658100000000     0.021566666667     0          
O        O      0.443450000000     0.650400000000     0.105050000000     0          
O        O      0.382500000000     0.689900000000     0.082866666667     0          
O        O      0.327300000000     0.706550000000     0.023183333333     0          
O        O      0.306550000000     0.698950000000     0.106283333333     0          
O        O      0.297950000000     0.649250000000     0.161600000000     0          
O        O      0.077100000000     0.841900000000     0.021566666667     0          
O        O      0.056550000000     0.849600000000     0.105050000000     0          
O        O      0.117500000000     0.810100000000     0.082866666667     0          
O        O      0.172700000000     0.793450000000     0.023183333333     0          
O        O      0.193450000000     0.801050000000     0.106283333333     0          
O        O      0.202050000000     0.850750000000     0.161600000000     0          
O        O      0.172900000000     0.591900000000     0.311766666667     0          
O        O      0.193450000000     0.599600000000     0.228283333333     0          
O        O      0.125000000000     0.625000000000     0.257650000000     0          
O        O      0.132500000000     0.560100000000     0.250466666667     0          
O        O      0.077300000000     0.543450000000     0.310150000000     0          
O        O      0.101600000000     0.500000000000     0.250000000000     0          
O        O      0.056550000000     0.551050000000     0.227050000000     0          
O        O      0.000000000000     0.548350000000     0.166666666667     0          
O        O      0.047950000000     0.600750000000     0.171733333333     0          
O        O      0.000000000000     0.653050000000     0.166666666667     0          
O        O      0.327100000000     0.908100000000     0.311766666667     0          
O        O      0.306550000000     0.900400000000     0.228283333333     0          
O        O      0.375000000000     0.875000000000     0.257650000000     0          
O        O      0.367500000000     0.939900000000     0.250466666667     0          
O        O      0.422700000000     0.956550000000     0.310150000000     0          
O        O      0.398400000000     0.500000000000     0.250000000000     0          
O        O      0.443450000000     0.948950000000     0.227050000000     0          
O        O      0.000000000000     0.951650000000     0.166666666667     0          
O        O      0.452050000000     0.899250000000     0.171733333333     0          
O        O      0.000000000000     0.846950000000     0.166666666667     0          
O        O      0.172900000000     0.908100000000     0.188233333333     0          
O        O      0.193450000000     0.900400000000     0.271716666667     0          
O        O      0.125000000000     0.875000000000     0.242350000000     0          
O        O      0.132500000000     0.939900000000     0.249533333333     0          
O        O      0.077300000000     0.956550000000     0.189850000000     0          
O        O      0.056550000000     0.948950000000     0.272950000000     0          
O        O      0.047950000000     0.899250000000     0.328266666667     0          
O        O      0.327100000000     0.591900000000     0.188233333333     0          
O        O      0.306550000000     0.599600000000     0.271716666667     0          
O        O      0.375000000000     0.625000000000     0.242350000000     0          
O        O      0.367500000000     0.560100000000     0.249533333333     0          
O        O      0.422700000000     0.543450000000     0.189850000000     0          
O        O      0.443450000000     0.551050000000     0.272950000000     0          
O        O      0.452050000000     0.600750000000     0.328266666667     0          
O        O      0.422900000000     0.841900000000     0.311766666667     0          
O        O      0.443450000000     0.849600000000     0.228283333333     0          
O        O      0.382500000000     0.810100000000     0.250466666667     0          
O        O      0.327300000000     0.793450000000     0.310150000000     0          
O        O      0.351600000000     0.750000000000     0.250000000000     0          
O        O      0.306550000000     0.801050000000     0.227050000000     0          
O        O      0.250000000000     0.798350000000     0.166666666667     0          
O        O      0.297950000000     0.850750000000     0.171733333333     0          
O        O      0.250000000000     0.903050000000     0.166666666667     0          
O        O      0.077100000000     0.658100000000     0.311766666667     0          
O        O      0.056550000000     0.650400000000     0.228283333333     0          
O        O      0.117500000000     0.689900000000     0.250466666667     0          
O        O      0.172700000000     0.706550000000     0.310150000000     0          
O        O      0.148400000000     0.750000000000     0.250000000000     0          
O        O      0.193450000000     0.698950000000     0.227050000000     0          
O        O      0.250000000000     0.701650000000     0.166666666667     0          
O        O      0.202050000000     0.649250000000     0.171733333333     0          
O        O      0.250000000000     0.596950000000     0.166666666667     0          
O        O      0.422900000000     0.658100000000     0.188233333333     0          
O        O      0.443450000000     0.650400000000     0.271716666667     0          
O        O      0.382500000000     0.689900000000     0.249533333333     0          
O        O      0.327300000000     0.706550000000     0.189850000000     0          
O        O      0.306550000000     0.698950000000     0.272950000000     0          
O        O      0.297950000000     0.649250000000     0.328266666667     0          
O        O      0.077100000000     0.841900000000     0.188233333333     0          
O        O      0.056550000000     0.849600000000     0.271716666667     0          
O        O      0.117500000000     0.810100000000     0.249533333333     0          
O        O      0.172700000000     0.793450000000     0.189850000000     0          
O        O      0.193450000000     0.801050000000     0.272950000000     0          
O        O      0.202050000000     0.850750000000     0.328266666667     0          
O        O      0.172900000000     0.591900000000     0.478433333333     0          
O        O      0.193450000000     0.599600000000     0.394950000000     0          
O        O      0.125000000000     0.625000000000     0.424316666667     0          
O        O      0.132500000000     0.560100000000     0.417133333333     0          
O        O      0.077300000000     0.543450000000     0.476816666667     0          
O        O      0.101600000000     0.500000000000     0.416666666667     0          
O        O      0.056550000000     0.551050000000     0.393716666667     0          
O        O      0.000000000000     0.548350000000     0.333333333333     0          
O        O      0.047950000000     0.600750000000     0.338400000000     0          
O        O      0.000000000000     0.653050000000     0.333333333333     0          
O        O      0.327100000000     0.908100000000     0.478433333333     0          
O        O      0.306550000000     0.900400000000     0.394950000000     0          
O        O      0.375000000000     0.875000000000     0.424316666667     0          
O        O      0.367500000000     0.939900000000     0.417133333333     0          
O        O      0.422700000000     0.956550000000     0.476816666667     0          
O        O      0.398400000000     0.500000000000     0.416666666667     0          
O        O      0.443450000000     0.948950000000     0.393716666667     0          
O        O      0.000000000000     0.951650000000     0.333333333333     0          
O        O      0.452050000000     0.899250000000     0.338400000000     0          
O        O      0.000000000000     0.846950000000     0.333333333333     0          
O        O      0.172900000000     0.908100000000     0.354900000000     0          
O        O      0.193450000000     0.900400000000     0.438383333333     0          
O        O      0.125000000000     0.875000000000     0.409016666667     0          
O        O      0.132500000000     0.939900000000     0.416200000000     0          
O        O      0.077300000000     0.956550000000     0.356516666667     0          
O        O      0.056550000000     0.948950000000     0.439616666667     0          
O        O      0.047950000000     0.899250000000     0.494933333333     0          
O        O      0.327100000000     0.591900000000     0.354900000000     0          
O        O      0.306550000000     0.599600000000     0.438383333333     0          
O        O      0.375000000000     0.625000000000     0.409016666667     0          
O        O      0.367500000000     0.560100000000     0.416200000000     0          
O        O      0.422700000000     0.543450000000     0.356516666667     0          
O        O      0.443450000000     0.551050000000     0.439616666667     0          
O        O      0.452050000000     0.600750000000     0.494933333333     0          
O        O      0.422900000000     0.841900000000     0.478433333333     0          
O        O      0.443450000000     0.849600000000     0.394950000000     0          
O        O      0.382500000000     0.810100000000     0.417133333333     0          
O        O      0.327300000000     0.793450000000     0.476816666667     0          
O        O      0.351600000000     0.750000000000     0.416666666667     0          
O        O      0.306550000000     0.801050000000     0.393716666667     0          
O        O      0.250000000000     0.798350000000     0.333333333333     0          
O        O      0.297950000000     0.850750000000     0.338400000000     0          
O        O      0.250000000000     0.903050000000     0.333333333333     0          
O        O      0.077100000000     0.658100000000     0.478433333333     0          
O        O      0.056550000000     0.650400000000     0.394950000000     0          
O        O      0.117500000000     0.689900000000     0.417133333333     0          
O        O      0.172700000000     0.706550000000     0.476816666667     0          
O        O      0.148400000000     0.750000000000     0.416666666667     0          
O        O      0.193450000000     0.698950000000     0.393716666667     0          
O        O      0.250000000000     0.701650000000     0.333333333333     0          
O        O      0.202050000000     0.649250000000     0.338400000000     0          
O        O      0.250000000000     0.596950000000     0.333333333333     0          
O        O      0.422900000000     0.658100000000     0.354900000000     0          
O        O      0.443450000000     0.650400000000     0.438383333333     0          
O        O      0.382500000000     0.689900000000     0.416200000000     0          
O        O      0.327300000000     0.706550000000     0.356516666667     0          
O        O      0.306550000000     0.698950000000     0.439616666667     0          
O        O      0.297950000000     0.649250000000     0.494933333333     0          
O        O      0.077100000000     0.841900000000     0.354900000000     0          
O        O      0.056550000000     0.849600000000     0.438383333333     0          
O        O      0.117500000000     0.810100000000     0.416200000000     0          
O        O      0.172700000000     0.793450000000     0.356516666667     0          
O        O      0.193450000000     0.801050000000     0.439616666667     0          
O        O      0.202050000000     0.850750000000     0.494933333333     0          
O        O      0.172900000000     0.591900000000     0.645100000000     0          
O        O      0.193450000000     0.599600000000     0.561616666667     0          
O        O      0.125000000000     0.625000000000     0.590983333333     0          
O        O      0.132500000000     0.560100000000     0.583800000000     0          
O        O      0.077300000000     0.543450000000     0.643483333333     0          
O        O      0.101600000000     0.500000000000     0.583333333333     0          
O        O      0.056550000000     0.551050000000     0.560383333333     0          
O        O      0.000000000000     0.548350000000     0.500000000000     0          
O        O      0.047950000000     0.600750000000     0.505066666667     0          
O        O      0.000000000000     0.653050000000     0.500000000000     0          
O        O      0.327100000000     0.908100000000     0.645100000000     0          
O        O      0.306550000000     0.900400000000     0.561616666667     0          
O        O      0.375000000000     0.875000000000     0.590983333333     0          
O        O      0.367500000000     0.939900000000     0.583800000000     0          
O        O      0.422700000000     0.956550000000     0.643483333333     0          
O        O      0.398400000000     0.500000000000     0.583333333333     0          
O        O      0.443450000000     0.948950000000     0.560383333333     0          
O        O      0.000000000000     0.951650000000     0.500000000000     0          
O        O      0.452050000000     0.899250000000     0.505066666667     0          
O        O      0.000000000000     0.846950000000     0.500000000000     0          
O        O      0.172900000000     0.908100000000     0.521566666667     0          
O        O      0.193450000000     0.900400000000     0.605050000000     0          
O        O      0.125000000000     0.875000000000     0.575683333333     0          
O        O      0.132500000000     0.939900000000     0.582866666667     0          
O        O      0.077300000000     0.956550000000     0.523183333333     0          
O        O      0.056550000000     0.948950000000     0.606283333333     0          
O        O      0.047950000000     0.899250000000     0.661600000000     0          
O        O      0.327100000000     0.591900000000     0.521566666667     0          
O        O      0.306550000000     0.599600000000     0.605050000000     0          
O        O      0.375000000000     0.625000000000     0.575683333333     0          
O        O      0.367500000000     0.560100000000     0.582866666667     0          
O        O      0.422700000000     0.543450000000     0.523183333333     0          
O        O      0.443450000000     0.551050000000     0.606283333333     0          
O        O      0.452050000000     0.600750000000     0.661600000000     0          
O        O      0.422900000000     0.841900000000     0.645100000000     0          
O        O      0.443450000000     0.849600000000     0.561616666667     0          
O        O      0.382500000000     0.810100000000     0.583800000000     0          
O        O      0.327300000000     0.793450000000     0.643483333333     0          
O        O      0.351600000000     0.750000000000     0.583333333333     0          
O        O      0.306550000000     0.801050000000     0.560383333333     0          
O        O      0.250000000000     0.798350000000     0.500000000000     0          
O        O      0.297950000000     0.850750000000     0.505066666667     0          
O        O      0.250000000000     0.903050000000     0.500000000000     0          
O        O      0.077100000000     0.658100000000     0.645100000000     0          
O        O      0.056550000000     0.650400000000     0.561616666667     0          
O        O      0.117500000000     0.689900000000     0.583800000000     0          
O        O      0.172700000000     0.706550000000     0.643483333333     0          
O        O      0.148400000000     0.750000000000     0.583333333333     0          
O        O      0.193450000000     0.698950000000     0.560383333333     0          
O        O      0.250000000000     0.701650000000     0.500000000000     0          
O        O      0.202050000000     0.649250000000     0.505066666667     0          
O        O      0.250000000000     0.596950000000     0.500000000000     0          
O        O      0.422900000000     0.658100000000     0.521566666667     0          
O        O      0.443450000000     0.650400000000     0.605050000000     0          
O        O      0.382500000000     0.689900000000     0.582866666667     0          
O        O      0.327300000000     0.706550000000     0.523183333333     0          
O        O      0.306550000000     0.698950000000     0.606283333333     0          
O        O      0.297950000000     0.649250000000     0.661600000000     0          
O        O      0.077100000000     0.841900000000     0.521566666667     0          
O        O      0.056550000000     0.849600000000     0.605050000000     0          
O        O      0.117500000000     0.810100000000     0.582866666667     0          
O        O      0.172700000000     0.793450000000     0.523183333333     0          
O        O      0.193450000000     0.801050000000     0.606283333333     0          
O        O      0.202050000000     0.850750000000     0.661600000000     0          
O        O      0.172900000000     0.591900000000     0.811766666667     0          
O        O      0.193450000000     0.599600000000     0.728283333333     0          
O        O      0.125000000000     0.625000000000     0.757650000000     0          
O        O      0.132500000000     0.560100000000     0.750466666667     0          
O        O      0.077300000000     0.543450000000     0.810150000000     0          
O        O      0.101600000000     0.500000000000     0.750000000000     0          
O        O      0.056550000000     0.551050000000     0.727050000000     0          
O        O      0.000000000000     0.548350000000     0.666666666667     0          
O        O      0.047950000000     0.600750000000     0.671733333333     0          
O        O      0.000000000000     0.653050000000     0.666666666667     0          
O        O      0.327100000000     0.908100000000     0.811766666667     0          
O        O      0.306550000000     0.900400000000     0.728283333333     0          
O        O      0.375000000000     0.875000000000     0.757650000000     0          
O        O      0.367500000000     0.939900000000     0.750466666667     0          
O        O      0.422700000000     0.956550000000     0.810150000000     0          
O        O      0.398400000000     0.500000000000     0.750000000000     0          
O        O      0.443450000000     0.948950000000     0.727050000000     0          
O        O      0.000000000000     0.951650000000     0.666666666667     0          
O        O      0.452050000000     0.899250000000     0.671733333333     0          
O        O      0.000000000000     0.846950000000     0.666666666667     0          
O        O      0.172900000000     0.908100000000     0.688233333333     0          
O        O      0.193450000000     0.900400000000     0.771716666667     0          
O        O      0.125000000000     0.875000000000     0.742350000000     0          
O        O      0.132500000000     0.939900000000     0.749533333333     0          
O        O      0.077300000000     0.956550000000     0.689850000000     0          
O        O      0.056550000000     0.948950000000     0.772950000000     0          
O        O      0.047950000000     0.899250000000     0.828266666667     0          
O        O      0.327100000000     0.591900000000     0.688233333333     0          
O        O      0.306550000000     0.599600000000     0.771716666667     0          
O        O      0.375000000000     0.625000000000     0.742350000000     0          
O        O      0.367500000000     0.560100000000     0.749533333333     0          
O        O      0.422700000000     0.543450000000     0.689850000000     0          
O        O      0.443450000000     0.551050000000     0.772950000000     0          
O        O      0.452050000000     0.600750000000     0.828266666667     0          
O        O      0.422900000000     0.841900000000     0.811766666667     0          
O        O      0.443450000000     0.849600000000     0.728283333333     0          
O        O      0.382500000000     0.810100000000     0.750466666667     0          
O        O      0.327300000000     0.793450000000     0.810150000000     0          
O        O      0.351600000000     0.750000000000     0.750000000000     0          
O        O      0.306550000000     0.801050000000     0.727050000000     0          
O        O      0.250000000000     0.798350000000     0.666666666667     0          
O        O      0.297950000000     0.850750000000     0.671733333333     0          
O        O      0.250000000000     0.903050000000     0.666666666667     0          
O        O      0.077100000000     0.658100000000     0.811766666667     0          
O        O      0.056550000000     0.650400000000     0.728283333333     0          
O        O      0.117500000000     0.689900000000     0.750466666667     0          
O        O      0.172700000000     0.706550000000     0.810150000000     0          
O        O      0.148400000000     0.750000000000     0.750000000000     0          
O        O      0.193450000000     0.698950000000     0.727050000000     0          
O        O      0.250000000000     0.701650000000     0.666666666667     0          
O        O      0.202050000000     0.649250000000     0.671733333333     0          
O        O      0.250000000000     0.596950000000     0.666666666667     0          
O        O      0.422900000000     0.658100000000     0.688233333333     0          
O        O      0.443450000000     0.650400000000     0.771716666667     0          
O        O      0.382500000000     0.689900000000     0.749533333333     0          
O        O      0.327300000000     0.706550000000     0.689850000000     0          
O        O      0.306550000000     0.698950000000     0.772950000000     0          
O        O      0.297950000000     0.649250000000     0.828266666667     0          
O        O      0.077100000000     0.841900000000     0.688233333333     0          
O        O      0.056550000000     0.849600000000     0.771716666667     0          
O        O      0.117500000000     0.810100000000     0.749533333333     0          
O        O      0.172700000000     0.793450000000     0.689850000000     0          
O        O      0.193450000000     0.801050000000     0.772950000000     0          
O        O      0.202050000000     0.850750000000     0.828266666667     0          
O        O      0.172900000000     0.591900000000     0.978433333333     0          
O        O      0.193450000000     0.599600000000     0.894950000000     0          
O        O      0.125000000000     0.625000000000     0.924316666667     0          
O        O      0.132500000000     0.560100000000     0.917133333333     0          
O        O      0.077300000000     0.543450000000     0.976816666667     0          
O        O      0.101600000000     0.500000000000     0.916666666667     0          
O        O      0.056550000000     0.551050000000     0.893716666667     0          
O        O      0.000000000000     0.548350000000     0.833333333333     0          
O        O      0.047950000000     0.600750000000     0.838400000000     0          
O        O      0.000000000000     0.653050000000     0.833333333333     0          
O        O      0.327100000000     0.908100000000     0.978433333333     0          
O        O      0.306550000000     0.900400000000     0.894950000000     0          
O        O      0.375000000000     0.875000000000     0.924316666667     0          
O        O      0.367500000000     0.939900000000     0.917133333333     0          
O        O      0.422700000000     0.956550000000     0.976816666667     0          
O        O      0.398400000000     0.500000000000     0.916666666667     0          
O        O      0.443450000000     0.948950000000     0.893716666667     0          
O        O      0.000000000000     0.951650000000     0.833333333333     0          
O        O      0.452050000000     0.899250000000     0.838400000000     0          
O        O      0.000000000000     0.846950000000     0.833333333333     0          
O        O      0.172900000000     0.908100000000     0.854900000000     0          
O        O      0.193450000000     0.900400000000     0.938383333333     0          
O        O      0.125000000000     0.875000000000     0.909016666667     0          
O        O      0.132500000000     0.939900000000     0.916200000000     0          
O        O      0.077300000000     0.956550000000     0.856516666667     0          
O        O      0.056550000000     0.948950000000     0.939616666667     0          
O        O      0.047950000000     0.899250000000     0.994933333333     0          
O        O      0.327100000000     0.591900000000     0.854900000000     0          
O        O      0.306550000000     0.599600000000     0.938383333333     0          
O        O      0.375000000000     0.625000000000     0.909016666667     0          
O        O      0.367500000000     0.560100000000     0.916200000000     0          
O        O      0.422700000000     0.543450000000     0.856516666667     0          
O        O      0.443450000000     0.551050000000     0.939616666667     0          
O        O      0.452050000000     0.600750000000     0.994933333333     0          
O        O      0.422900000000     0.841900000000     0.978433333333     0          
O        O      0.443450000000     0.849600000000     0.894950000000     0          
O        O      0.382500000000     0.810100000000     0.917133333333     0          
O        O      0.327300000000     0.793450000000     0.976816666667     0          
O        O      0.351600000000     0.750000000000     0.916666666667     0          
O        O      0.306550000000     0.801050000000     0.893716666667     0          
O        O      0.250000000000     0.798350000000     0.833333333333     0          
O        O      0.297950000000     0.850750000000     0.838400000000     0          
O        O      0.250000000000     0.903050000000     0.833333333333     0          
O        O      0.077100000000     0.658100000000     0.978433333333     0          
O        O      0.056550000000     0.650400000000     0.894950000000     0          
O        O      0.117500000000     0.689900000000     0.917133333333     0          
O        O      0.172700000000     0.706550000000     0.976816666667     0          
O        O      0.148400000000     0.750000000000     0.916666666667     0          
O        O      0.193450000000     0.698950000000     0.893716666667     0          
O        O      0.250000000000     0.701650000000     0.833333333333     0          
O        O      0.202050000000     0.649250000000     0.838400000000     0          
O        O      0.250000000000     0.596950000000     0.833333333333     0          
O        O      0.422900000000     0.658100000000     0.854900000000     0          
O        O      0.443450000000     0.650400000000     0.938383333333     0          
O        O      0.382500000000     0.689900000000     0.916200000000     0          
O        O      0.327300000000     0.706550000000     0.856516666667     0          
O        O      0.306550000000     0.698950000000     0.939616666667     0          
O        O      0.297950000000     0.649250000000     0.994933333333     0          
O        O      0.077100000000     0.841900000000     0.854900000000     0          
O        O      0.056550000000     0.849600000000     0.938383333333     0          
O        O      0.117500000000     0.810100000000     0.916200000000     0          
O        O      0.172700000000     0.793450000000     0.856516666667     0          
O        O      0.193450000000     0.801050000000     0.939616666667     0          
O        O      0.202050000000     0.850750000000     0.994933333333     0          
O        O      0.672900000000     0.091900000000     0.145100000000     0          
O        O      0.693450000000     0.099600000000     0.061616666667     0          
O        O      0.625000000000     0.125000000000     0.090983333333     0          
O        O      0.632500000000     0.060100000000     0.083800000000     0          
O        O      0.577300000000     0.043450000000     0.143483333333     0          
O        O      0.601600000000     0.000000000000     0.083333333333     0          
O        O      0.556550000000     0.051050000000     0.060383333333     0          
O        O      0.500000000000     0.048350000000     0.000000000000     0          
O        O      0.547950000000     0.100750000000     0.005066666667     0          
O        O      0.500000000000     0.153050000000     0.000000000000     0          
O        O      0.827100000000     0.408100000000     0.145100000000     0          
O        O      0.806550000000     0.400400000000     0.061616666667     0          
O        O      0.875000000000     0.375000000000     0.090983333333     0          
O        O      0.867500000000     0.439900000000     0.083800000000     0          
O        O      0.922700000000     0.456550000000     0.143483333333     0          
O        O      0.898400000000     0.000000000000     0.083333333333     0          
O        O      0.943450000000     0.448950000000     0.060383333333     0          
O        O      0.500000000000     0.451650000000     0.000000000000     0          
O        O      0.952050000000     0.399250000000     0.005066666667     0          
O        O      0.500000000000     0.346950000000     0.000000000000     0          
O        O      0.672900000000     0.408100000000     0.021566666667     0          
O        O      0.693450000000     0.400400000000     0.105050000000     0          
O        O      0.625000000000     0.375000000000     0.075683333333     0          
O        O      0.632500000000     0.439900000000     0.082866666667     0          
O        O      0.577300000000     0.456550000000     0.023183333333     0          
O        O      0.556550000000     0.448950000000     0.106283333333     0          
O        O      0.547950000000     0.399250000000     0.161600000000     0          
O        O      0.827100000000     0.091900000000     0.021566666667     0          
O        O      0.806550000000     0.099600000000     0.105050000000     0          
O        O      0.875000000000     0.125000000000     0.075683333333     0          
O        O      0.867500000000     0.060100000000     0.082866666667     0          
O        O      0.922700000000     0.043450000000     0.023183333333     0          
O        O      0.943450000000     0.051050000000     0.106283333333     0          
O        O      0.952050000000     0.100750000000     0.161600000000     0          
O        O      0.922900000000     0.341900000000     0.145100000000     0          
O        O      0.943450000000     0.349600000000     0.061616666667     0          
O        O      0.882500000000     0.310100000000     0.083800000000     0          
O        O      0.827300000000     0.293450000000     0.143483333333     0          
O        O      0.851600000000     0.250000000000     0.083333333333     0          
O        O      0.806550000000     0.301050000000     0.060383333333     0          
O        O      0.750000000000     0.298350000000     0.000000000000     0          
O        O      0.797950000000     0.350750000000     0.005066666667     0          
O        O      0.750000000000     0.403050000000     0.000000000000     0          
O        O      0.577100000000     0.158100000000     0.145100000000     0          
O        O      0.556550000000     0.150400000000     0.061616666667     0          
O        O      0.617500000000     0.189900000000     0.083800000000     0          
O        O      0.672700000000     0.206550000000     0.143483333333     0          
O        O      0.648400000000     0.250000000000     0.083333333333     0          
O        O      0.693450000000     0.198950000000     0.060383333333     0          
O        O      0.750000000000     0.201650000000     0.000000000000     0          
O        O      0.702050000000     0.149250000000     0.005066666667     0          
O        O      0.750000000000     0.096950000000     0.000000000000     0          
O        O      0.922900000000     0.158100000000     0.021566666667     0          
O        O      0.943450000000     0.150400000000     0.105050000000     0          
O        O      0.882500000000     0.189900000000     0.082866666667     0          
O        O      0.827300000000     0.206550000000     0.023183333333     0          
O        O      0.806550000000     0.198950000000     0.106283333333     0          
O        O      0.797950000000     0.149250000000     0.161600000000     0          
O        O      0.577100000000     0.341900000000     0.021566666667     0          
O        O      0.556550000000     0.349600000000     0.105050000000     0          
O        O      0.617500000000     0.310100000000     0.082866666667     0          
O        O      0.672700000000     0.293450000000     0.023183333333     0          
O        O      0.693450000000     0.301050000000     0.106283333333     0          
O        O      0.702050000000     0.350750000000     0.161600000000     0          
O        O      0.672900000000     0.091900000000     0.311766666667     0          
O        O      0.693450000000     0.099600000000     0.228283333333     0          
O        O      0.625000000000     0.125000000000     0.257650000000     0          
O        O      0.632500000000     0.060100000000     0.250466666667     0          
O        O      0.577300000000     0.043450000000     0.310150000000     0          
O        O      0.601600000000     0.000000000000     0.250000000000     0          
O        O      0.556550000000     0.051050000000     0.227050000000     0          
O        O      0.500000000000     0.048350000000     0.166666666667     0          
O        O      0.547950000000     0.100750000000     0.171733333333     0          
O        O      0.500000000000     0.153050000000     0.166666666667     0          
O        O      0.827100000000     0.408100000000     0.311766666667     0          
O        O      0.806550000000     0.400400000000     0.228283333333     0          
O        O      0.875000000000     0.375000000000     0.257650000000     0          
O        O      0.867500000000     0.439900000000     0.250466666667     0          
O        O      0.922700000000     0.456550000000     0.310150000000     0          
O        O      0.898400000000     0.000000000000     0.250000000000     0          
O        O      0.943450000000     0.448950000000     0.227050000000     0          
O        O      0.500000000000     0.451650000000     0.166666666667     0          
O        O      0.952050000000     0.399250000000     0.171733333333     0          
O        O      0.500000000000     0.346950000000     0.166666666667     0          
O        O      0.672900000000     0.408100000000     0.188233333333     0          
O        O      0.693450000000     0.400400000000     0.271716666667     0          
O        O      0.625000000000     0.375000000000     0.242350000000     0          
O        O      0.632500000000     0.439900000000     0.249533333333     0          
O        O      0.577300000000     0.456550000000     0.189850000000     0          
O        O      0.556550000000     0.448950000000     0.272950000000     0          
O        O      0.547950000000     0.399250000000     0.328266666667     0          
O        O      0.827100000000     0.091900000000     0.188233333333     0          
O        O      0.806550000000     0.099600000000     0.271716666667     0          
O        O      0.875000000000     0.125000000000     0.242350000000     0          
O        O      0.867500000000     0.060100000000     0.249533333333     0          
O        O      0.922700000000     0.043450000000     0.189850000000     0          
O        O      0.943450000000     0.051050000000     0.272950000000     0          
O        O      0.952050000000     0.100750000000     0.328266666667     0          
O        O      0.922900000000     0.341900000000     0.311766666667     0          
O        O      0.943450000000     0.349600000000     0.228283333333     0          
O        O      0.882500000000     0.310100000000     0.250466666667     0          
O        O      0.827300000000     0.293450000000     0.310150000000     0          
O        O      0.851600000000     0.250000000000     0.250000000000     0          
O        O      0.806550000000     0.301050000000     0.227050000000     0          
O        O      0.750000000000     0.298350000000     0.166666666667     0          
O        O      0.797950000000     0.350750000000     0.171733333333     0          
O        O      0.750000000000     0.403050000000     0.166666666667     0          
O        O      0.577100000000     0.158100000000     0.311766666667     0          
O        O      0.556550000000     0.150400000000     0.228283333333     0          
O        O      0.617500000000     0.189900000000     0.250466666667     0          
O        O      0.672700000000     0.206550000000     0.310150000000     0          
O        O      0.648400000000     0.250000000000     0.250000000000     0          
O        O      0.693450000000     0.198950000000     0.227050000000     0          
O        O      0.750000000000     0.201650000000     0.166666666667     0          
O        O      0.702050000000     0.149250000000     0.171733333333     0          
O        O      0.750000000000     0.096950000000     0.166666666667     0          
O        O      0.922900000000     0.158100000000     0.188233333333     0          
O        O      0.943450000000     0.150400000000     0.271716666667     0          
O        O      0.882500000000     0.189900000000     0.249533333333     0          
O        O      0.827300000000     0.206550000000     0.189850000000     0          
O        O      0.806550000000     0.198950000000     0.272950000000     0          
O        O      0.797950000000     0.149250000000     0.328266666667     0          
O        O      0.577100000000     0.341900000000     0.188233333333     0          
O        O      0.556550000000     0.349600000000     0.271716666667     0          
O        O      0.617500000000     0.310100000000     0.249533333333     0          
O        O      0.672700000000     0.293450000000     0.189850000000     0          
O        O      0.693450000000     0.301050000000     0.272950000000     0          
O        O      0.702050000000     0.350750000000     0.328266666667     0          
O        O      0.672900000000     0.091900000000     0.478433333333     0          
O        O      0.693450000000     0.099600000000     0.394950000000     0          
O        O      0.625000000000     0.125000000000     0.424316666667     0          
O        O      0.632500000000     0.060100000000     0.417133333333     0          
O        O      0.577300000000     0.043450000000     0.476816666667     0          
O        O      0.601600000000     0.000000000000     0.416666666667     0          
O        O      0.556550000000     0.051050000000     0.393716666667     0          
O        O      0.500000000000     0.048350000000     0.333333333333     0          
O        O      0.547950000000     0.100750000000     0.338400000000     0          
O        O      0.500000000000     0.153050000000     0.333333333333     0          
O        O      0.827100000000     0.408100000000     0.478433333333     0          
O        O      0.806550000000     0.400400000000     0.394950000000     0          
O        O      0.875000000000     0.375000000000     0.424316666667     0          
O        O      0.867500000000     0.439900000000     0.417133333333     0          
O        O      0.922700000000     0.456550000000     0.476816666667     0          
O        O      0.898400000000     0.000000000000     0.416666666667     0          
O        O      0.943450000000     0.448950000000     0.393716666667     0          
O        O      0.500000000000     0.451650000000     0.333333333333     0          
O        O      0.952050000000     0.399250000000     0.338400000000     0          
O        O      0.500000000000     0.346950000000     0.333333333333     0          
O        O      0.672900000000     0.408100000000     0.354900000000     0          
O        O      0.693450000000     0.400400000000     0.438383333333     0          
O        O      0.625000000000     0.375000000000     0.409016666667     0          
O        O      0.632500000000     0.439900000000     0.416200000000     0          
O        O      0.577300000000     0.456550000000     0.356516666667     0          
O        O      0.556550000000     0.448950000000     0.439616666667     0          
O        O      0.547950000000     0.399250000000     0.494933333333     0          
O        O      0.827100000000     0.091900000000     0.354900000000     0          
O        O      0.806550000000     0.099600000000     0.438383333333     0          
O        O      0.875000000000     0.125000000000     0.409016666667     0          
O        O      0.867500000000     0.060100000000     0.416200000000     0          
O        O      0.922700000000     0.043450000000     0.356516666667     0          
O        O      0.943450000000     0.051050000000     0.439616666667     0          
O        O      0.952050000000     0.100750000000     0.494933333333     0          
O        O      0.922900000000     0.341900000000     0.478433333333     0          
O        O      0.943450000000     0.349600000000     0.394950000000     0          
O        O      0.882500000000     0.310100000000     0.417133333333     0          
O        O      0.827300000000     0.293450000000     0.476816666667     0          
O        O      0.851600000000     0.250000000000     0.416666666667     0          
O        O      0.806550000000     0.301050000000     0.393716666667     0          
O        O      0.750000000000     0.298350000000     0.333333333333     0          
O        O      0.797950000000     0.350750000000     0.338400000000     0          
O        O      0.750000000000     0.403050000000     0.333333333333     0          
O        O      0.577100000000     0.158100000000     0.478433333333     0          
O        O      0.556550000000     0.150400000000     0.394950000000     0          
O        O      0.617500000000     0.189900000000     0.417133333333     0          
O        O      0.672700000000     0.206550000000     0.476816666667     0          
O        O      0.648400000000     0.250000000000     0.416666666667     0          
O        O      0.693450000000     0.198950000000     0.393716666667     0          
O        O      0.750000000000     0.201650000000     0.333333333333     0          
O        O      0.702050000000     0.149250000000     0.338400000000     0          
O        O      0.750000000000     0.096950000000     0.333333333333     0          
O        O      0.922900000000     0.158100000000     0.354900000000     0          
O        O      0.943450000000     0.150400000000     0.438383333333     0          
O        O      0.882500000000     0.189900000000     0.416200000000     0          
O        O      0.827300000000     0.206550000000     0.356516666667     0          
O        O      0.806550000000     0.198950000000     0.439616666667     0          
O        O      0.797950000000     0.149250000000     0.494933333333     0          
O        O      0.577100000000     0.341900000000     0.354900000000     0          
O        O      0.556550000000     0.349600000000     0.438383333333     0          
O        O      0.617500000000     0.310100000000     0.416200000000     0          
O        O      0.672700000000     0.293450000000     0.356516666667     0          
O        O      0.693450000000     0.301050000000     0.439616666667     0          
O        O      0.702050000000     0.350750000000     0.494933333333     0          
O        O      0.672900000000     0.091900000000     0.645100000000     0          
O        O      0.693450000000     0.099600000000     0.561616666667     0          
O        O      0.625000000000     0.125000000000     0.590983333333     0          
O        O      0.632500000000     0.060100000000     0.583800000000     0          
O        O      0.577300000000     0.043450000000     0.643483333333     0          
O        O      0.601600000000     0.000000000000     0.583333333333     0          
O        O      0.556550000000     0.051050000000     0.560383333333     0          
O        O      0.500000000000     0.048350000000     0.500000000000     0          
O        O      0.547950000000     0.100750000000     0.505066666667     0          
O        O      0.500000000000     0.153050000000     0.500000000000     0          
O        O      0.827100000000     0.408100000000     0.645100000000     0          
O        O      0.806550000000     0.400400000000     0.561616666667     0          
O        O      0.875000000000     0.375000000000     0.590983333333     0          
O        O      0.867500000000     0.439900000000     0.583800000000     0          
O        O      0.922700000000     0.456550000000     0.643483333333     0          
O        O      0.898400000000     0.000000000000     0.583333333333     0          
O        O      0.943450000000     0.448950000000     0.560383333333     0          
O        O      0.500000000000     0.451650000000     0.500000000000     0          
O        O      0.952050000000     0.399250000000     0.505066666667     0          
O        O      0.500000000000     0.346950000000     0.500000000000     0          
O        O      0.672900000000     0.408100000000     0.521566666667     0          
O        O      0.693450000000     0.400400000000     0.605050000000     0          
O        O      0.625000000000     0.375000000000     0.575683333333     0          
O        O      0.632500000000     0.439900000000     0.582866666667     0          
O        O      0.577300000000     0.456550000000     0.523183333333     0          
O        O      0.556550000000     0.448950000000     0.606283333333     0          
O        O      0.547950000000     0.399250000000     0.661600000000     0          
O        O      0.827100000000     0.091900000000     0.521566666667     0          
O        O      0.806550000000     0.099600000000     0.605050000000     0          
O        O      0.875000000000     0.125000000000     0.575683333333     0          
O        O      0.867500000000     0.060100000000     0.582866666667     0          
O        O      0.922700000000     0.043450000000     0.523183333333     0          
O        O      0.943450000000     0.051050000000     0.606283333333     0          
O        O      0.952050000000     0.100750000000     0.661600000000     0          
O        O      0.922900000000     0.341900000000     0.645100000000     0          
O        O      0.943450000000     0.349600000000     0.561616666667     0          
O        O      0.882500000000     0.310100000000     0.583800000000     0          
O        O      0.827300000000     0.293450000000     0.643483333333     0          
O        O      0.851600000000     0.250000000000     0.583333333333     0          
O        O      0.806550000000     0.301050000000     0.560383333333     0          
O        O      0.750000000000     0.298350000000     0.500000000000     0          
O        O      0.797950000000     0.350750000000     0.505066666667     0          
O        O      0.750000000000     0.403050000000     0.500000000000     0          
O        O      0.577100000000     0.158100000000     0.645100000000     0          
O        O      0.556550000000     0.150400000000     0.561616666667     0          
O        O      0.617500000000     0.189900000000     0.583800000000     0          
O        O      0.672700000000     0.206550000000     0.643483333333     0          
O        O      0.648400000000     0.250000000000     0.583333333333     0          
O        O      0.693450000000     0.198950000000     0.560383333333     0          
O        O      0.750000000000     0.201650000000     0.500000000000     0          
O        O      0.702050000000     0.149250000000     0.505066666667     0          
O        O      0.750000000000     0.096950000000     0.500000000000     0          
O        O      0.922900000000     0.158100000000     0.521566666667     0          
O        O      0.943450000000     0.150400000000     0.605050000000     0          
O        O      0.882500000000     0.189900000000     0.582866666667     0          
O        O      0.827300000000     0.206550000000     0.523183333333     0          
O        O      0.806550000000     0.198950000000     0.606283333333     0          
O        O      0.797950000000     0.149250000000     0.661600000000     0          
O        O      0.577100000000     0.341900000000     0.521566666667     0          
O        O      0.556550000000     0.349600000000     0.605050000000     0          
O        O      0.617500000000     0.310100000000     0.582866666667     0          
O        O      0.672700000000     0.293450000000     0.523183333333     0          
O        O      0.693450000000     0.301050000000     0.606283333333     0          
O        O      0.702050000000     0.350750000000     0.661600000000     0          
O        O      0.672900000000     0.091900000000     0.811766666667     0          
O        O      0.693450000000     0.099600000000     0.728283333333     0          
O        O      0.625000000000     0.125000000000     0.757650000000     0          
O        O      0.632500000000     0.060100000000     0.750466666667     0          
O        O      0.577300000000     0.043450000000     0.810150000000     0          
O        O      0.601600000000     0.000000000000     0.750000000000     0          
O        O      0.556550000000     0.051050000000     0.727050000000     0          
O        O      0.500000000000     0.048350000000     0.666666666667     0          
O        O      0.547950000000     0.100750000000     0.671733333333     0          
O        O      0.500000000000     0.153050000000     0.666666666667     0          
O        O      0.827100000000     0.408100000000     0.811766666667     0          
O        O      0.806550000000     0.400400000000     0.728283333333     0          
O        O      0.875000000000     0.375000000000     0.757650000000     0          
O        O      0.867500000000     0.439900000000     0.750466666667     0          
O        O      0.922700000000     0.456550000000     0.810150000000     0          
O        O      0.898400000000     0.000000000000     0.750000000000     0          
O        O      0.943450000000     0.448950000000     0.727050000000     0          
O        O      0.500000000000     0.451650000000     0.666666666667     0          
O        O      0.952050000000     0.399250000000     0.671733333333     0          
O        O      0.500000000000     0.346950000000     0.666666666667     0          
O        O      0.672900000000     0.408100000000     0.688233333333     0          
O        O      0.693450000000     0.400400000000     0.771716666667     0          
O        O      0.625000000000     0.375000000000     0.742350000000     0          
O        O      0.632500000000     0.439900000000     0.749533333333     0          
O        O      0.577300000000     0.456550000000     0.689850000000     0          
O        O      0.556550000000     0.448950000000     0.772950000000     0          
O        O      0.547950000000     0.399250000000     0.828266666667     0          
O        O      0.827100000000     0.091900000000     0.688233333333     0          
O        O      0.806550000000     0.099600000000     0.771716666667     0          
O        O      0.875000000000     0.125000000000     0.742350000000     0          
O        O      0.867500000000     0.060100000000     0.749533333333     0          
O        O      0.922700000000     0.043450000000     0.689850000000     0          
O        O      0.943450000000     0.051050000000     0.772950000000     0          
O        O      0.952050000000     0.100750000000     0.828266666667     0          
O        O      0.922900000000     0.341900000000     0.811766666667     0          
O        O      0.943450000000     0.349600000000     0.728283333333     0          
O        O      0.882500000000     0.310100000000     0.750466666667     0          
O        O      0.827300000000     0.293450000000     0.810150000000     0          
O        O      0.851600000000     0.250000000000     0.750000000000     0          
O        O      0.806550000000     0.301050000000     0.727050000000     0          
O        O      0.750000000000     0.298350000000     0.666666666667     0          
O        O      0.797950000000     0.350750000000     0.671733333333     0          
O        O      0.750000000000     0.403050000000     0.666666666667     0          
O        O      0.577100000000     0.158100000000     0.811766666667     0          
O        O      0.556550000000     0.150400000000     0.728283333333     0          
O        O      0.617500000000     0.189900000000     0.750466666667     0          
O        O      0.672700000000     0.206550000000     0.810150000000     0          
O        O      0.648400000000     0.250000000000     0.750000000000     0          
O        O      0.693450000000     0.198950000000     0.727050000000     0          
O        O      0.750000000000     0.201650000000     0.666666666667     0          
O        O      0.702050000000     0.149250000000     0.671733333333     0          
O        O      0.750000000000     0.096950000000     0.666666666667     0          
O        O      0.922900000000     0.158100000000     0.688233333333     0          
O        O      0.943450000000     0.150400000000     0.771716666667     0          
O        O      0.882500000000     0.189900000000     0.749533333333     0          
O        O      0.827300000000     0.206550000000     0.689850000000     0          
O        O      0.806550000000     0.198950000000     0.772950000000     0          
O        O      0.797950000000     0.149250000000     0.828266666667     0          
O        O      0.577100000000     0.341900000000     0.688233333333     0          
O        O      0.556550000000     0.349600000000     0.771716666667     0          
O        O      0.617500000000     0.310100000000     0.749533333333     0          
O        O      0.672700000000     0.293450000000     0.689850000000     0          
O        O      0.693450000000     0.301050000000     0.772950000000     0          
O        O      0.702050000000     0.350750000000     0.828266666667     0          
O        O      0.672900000000     0.091900000000     0.978433333333     0          
O        O      0.693450000000     0.099600000000     0.894950000000     0          
O        O      0.625000000000     0.125000000000     0.924316666667     0          
O        O      0.632500000000     0.060100000000     0.917133333333     0          
O        O      0.577300000000     0.043450000000     0.976816666667     0          
O        O      0.601600000000     0.000000000000     0.916666666667     0          
O        O      0.556550000000     0.051050000000     0.893716666667     0          
O        O      0.500000000000     0.048350000000     0.833333333333     0          
O        O      0.547950000000     0.100750000000     0.838400000000     0          
O        O      0.500000000000     0.153050000000     0.833333333333     0          
O        O      0.827100000000     0.408100000000     0.978433333333     0          
O        O      0.806550000000     0.400400000000     0.894950000000     0          
O        O      0.875000000000     0.375000000000     0.924316666667     0          
O        O      0.867500000000     0.439900000000     0.917133333333     0          
O        O      0.922700000000     0.456550000000     0.976816666667     0          
O        O      0.898400000000     0.000000000000     0.916666666667     0          
O        O      0.943450000000     0.448950000000     0.893716666667     0          
O        O      0.500000000000     0.451650000000     0.833333333333     0          
O        O      0.952050000000     0.399250000000     0.838400000000     0          
O        O      0.500000000000     0.346950000000     0.833333333333     0          
O        O      0.672900000000     0.408100000000     0.854900000000     0          
O        O      0.693450000000     0.400400000000     0.938383333333     0          
O        O      0.625000000000     0.375000000000     0.909016666667     0          
O        O      0.632500000000     0.439900000000     0.916200000000     0          
O        O      0.577300000000     0.456550000000     0.856516666667     0          
O        O      0.556550000000     0.448950000000     0.939616666667     0          
O        O      0.547950000000     0.399250000000     0.994933333333     0          
O        O      0.827100000000     0.091900000000     0.854900000000     0          
O        O      0.806550000000     0.099600000000     0.938383333333     0          
O        O      0.875000000000     0.125000000000     0.909016666667     0          
O        O      0.867500000000     0.060100000000     0.916200000000     0          
O        O      0.922700000000     0.043450000000     0.856516666667     0          
O        O      0.943450000000     0.051050000000     0.939616666667     0          
O        O      0.952050000000     0.100750000000     0.994933333333     0          
O        O      0.922900000000     0.341900000000     0.978433333333     0          
O        O      0.943450000000     0.349600000000     0.894950000000     0          
O        O      0.882500000000     0.310100000000     0.917133333333     0          
O        O      0.827300000000     0.293450000000     0.976816666667     0          
O        O      0.851600000000     0.250000000000     0.916666666667     0          
O        O      0.806550000000     0.301050000000     0.893716666667     0          
O        O      0.750000000000     0.298350000000     0.833333333333     0          
O        O      0.797950000000     0.350750000000     0.838400000000     0          
O        O      0.750000000000     0.403050000000     0.833333333333     0          
O        O      0.577100000000     0.158100000000     0.978433333333     0          
O        O      0.556550000000     0.150400000000     0.894950000000     0          
O        O      0.617500000000     0.189900000000     0.917133333333     0          
O        O      0.672700000000     0.206550000000     0.976816666667     0          
O        O      0.648400000000     0.250000000000     0.916666666667     0          
O        O      0.693450000000     0.198950000000     0.893716666667     0          
O        O      0.750000000000     0.201650000000     0.833333333333     0          
O        O      0.702050000000     0.149250000000     0.838400000000     0          
O        O      0.750000000000     0.096950000000     0.833333333333     0          
O        O      0.922900000000     0.158100000000     0.854900000000     0          
O        O      0.943450000000     0.150400000000     0.938383333333     0          
O        O      0.882500000000     0.189900000000     0.916200000000     0          
O        O      0.827300000000     0.206550000000     0.856516666667     0          
O        O      0.806550000000     0.198950000000     0.939616666667     0          
O        O      0.797950000000     0.149250000000     0.994933333333     0          
O        O      0.577100000000     0.341900000000     0.854900000000     0          
O        O      0.556550000000     0.349600000000     0.938383333333     0          
O        O      0.617500000000     0.310100000000     0.916200000000     0          
O        O      0.672700000000     0.293450000000     0.856516666667     0          
O        O      0.693450000000     0.301050000000     0.939616666667     0          
O        O      0.702050000000     0.350750000000     0.994933333333     0          
O        O      0.672900000000     0.591900000000     0.145100000000     0          
O        O      0.693450000000     0.599600000000     0.061616666667     0          
O        O      0.625000000000     0.625000000000     0.090983333333     0          
O        O      0.632500000000     0.560100000000     0.083800000000     0          
O        O      0.577300000000     0.543450000000     0.143483333333     0          
O        O      0.601600000000     0.500000000000     0.083333333333     0          
O        O      0.556550000000     0.551050000000     0.060383333333     0          
O        O      0.500000000000     0.548350000000     0.000000000000     0          
O        O      0.547950000000     0.600750000000     0.005066666667     0          
O        O      0.500000000000     0.653050000000     0.000000000000     0          
O        O      0.827100000000     0.908100000000     0.145100000000     0          
O        O      0.806550000000     0.900400000000     0.061616666667     0          
O        O      0.875000000000     0.875000000000     0.090983333333     0          
O        O      0.867500000000     0.939900000000     0.083800000000     0          
O        O      0.922700000000     0.956550000000     0.143483333333     0          
O        O      0.898400000000     0.500000000000     0.083333333333     0          
O        O      0.943450000000     0.948950000000     0.060383333333     0          
O        O      0.500000000000     0.951650000000     0.000000000000     0          
O        O      0.952050000000     0.899250000000     0.005066666667     0          
O        O      0.500000000000     0.846950000000     0.000000000000     0          
O        O      0.672900000000     0.908100000000     0.021566666667     0          
O        O      0.693450000000     0.900400000000     0.105050000000     0          
O        O      0.625000000000     0.875000000000     0.075683333333     0          
O        O      0.632500000000     0.939900000000     0.082866666667     0          
O        O      0.577300000000     0.956550000000     0.023183333333     0          
O        O      0.556550000000     0.948950000000     0.106283333333     0          
O        O      0.547950000000     0.899250000000     0.161600000000     0          
O        O      0.827100000000     0.591900000000     0.021566666667     0          
O        O      0.806550000000     0.599600000000     0.105050000000     0          
O        O      0.875000000000     0.625000000000     0.075683333333     0          
O        O      0.867500000000     0.560100000000     0.082866666667     0          
O        O      0.922700000000     0.543450000000     0.023183333333     0          
O        O      0.943450000000     0.551050000000     0.106283333333     0          
O        O      0.952050000000     0.600750000000     0.161600000000     0          
O        O      0.922900000000     0.841900000000     0.145100000000     0          
O        O      0.943450000000     0.849600000000     0.061616666667     0          
O        O      0.882500000000     0.810100000000     0.083800000000     0          
O        O      0.827300000000     0.793450000000     0.143483333333     0          
O        O      0.851600000000     0.750000000000     0.083333333333     0          
O        O      0.806550000000     0.801050000000     0.060383333333     0          
O        O      0.750000000000     0.798350000000     0.000000000000     0          
O        O      0.797950000000     0.850750000000     0.005066666667     0          
O        O      0.750000000000     0.903050000000     0.000000000000     0          
O        O      0.577100000000     0.658100000000     0.145100000000     0          
O        O      0.556550000000     0.650400000000     0.061616666667     0          
O        O      0.617500000000     0.689900000000     0.083800000000     0          
O        O      0.672700000000     0.706550000000     0.143483333333     0          
O        O      0.648400000000     0.750000000000     0.083333333333     0          
O        O      0.693450000000     0.698950000000     0.060383333333     0          
O        O      0.750000000000     0.701650000000     0.000000000000     0          
O        O      0.702050000000     0.649250000000     0.005066666667     0          
O        O      0.750000000000     0.596950000000     0.000000000000     0          
O        O      0.922900000000     0.658100000000     0.021566666667     0          
O        O      0.943450000000     0.650400000000     0.105050000000     0          
O        O      0.882500000000     0.689900000000     0.082866666667     0          
O        O      0.827300000000     0.706550000000     0.023183333333     0          
O        O      0.806550000000     0.698950000000     0.106283333333     0          
O        O      0.797950000000     0.649250000000     0.161600000000     0          
O        O      0.577100000000     0.841900000000     0.021566666667     0          
O        O      0.556550000000     0.849600000000     0.105050000000     0          
O        O      0.617500000000     0.810100000000     0.082866666667     0          
O        O      0.672700000000     0.793450000000     0.023183333333     0          
O        O      0.693450000000     0.801050000000     0.106283333333     0          
O        O      0.702050000000     0.850750000000     0.161600000000     0          
O        O      0.672900000000     0.591900000000     0.311766666667     0          
O        O      0.693450000000     0.599600000000     0.228283333333     0          
O        O      0.625000000000     0.625000000000     0.257650000000     0          
O        O      0.632500000000     0.560100000000     0.250466666667     0          
O        O      0.577300000000     0.543450000000     0.310150000000     0          
O        O      0.601600000000     0.500000000000     0.250000000000     0          
O        O      0.556550000000     0.551050000000     0.227050000000     0          
O        O      0.500000000000     0.548350000000     0.166666666667     0          
O        O      0.547950000000     0.600750000000     0.171733333333     0          
O        O      0.500000000000     0.653050000000     0.166666666667     0          
O        O      0.827100000000     0.908100000000     0.311766666667     0          
O        O      0.806550000000     0.900400000000     0.228283333333     0          
O        O      0.875000000000     0.875000000000     0.257650000000     0          
O        O      0.867500000000     0.939900000000     0.250466666667     0          
O        O      0.922700000000     0.956550000000     0.310150000000     0          
O        O      0.898400000000     0.500000000000     0.250000000000     0          
O        O      0.943450000000     0.948950000000     0.227050000000     0          
O        O      0.500000000000     0.951650000000     0.166666666667     0          
O        O      0.952050000000     0.899250000000     0.171733333333     0          
O        O      0.500000000000     0.846950000000     0.166666666667     0          
O        O      0.672900000000     0.908100000000     0.188233333333     0          
O        O      0.693450000000     0.900400000000     0.271716666667     0          
O        O      0.625000000000     0.875000000000     0.242350000000     0          
O        O      0.632500000000     0.939900000000     0.249533333333     0          
O        O      0.577300000000     0.956550000000     0.189850000000     0          
O        O      0.556550000000     0.948950000000     0.272950000000     0          
O        O      0.547950000000     0.899250000000     0.328266666667     0          
O        O      0.827100000000     0.591900000000     0.188233333333     0          
O        O      0.806550000000     0.599600000000     0.271716666667     0          
O        O      0.875000000000     0.625000000000     0.242350000000     0          
O        O      0.867500000000     0.560100000000     0.249533333333     0          
O        O      0.922700000000     0.543450000000     0.189850000000     0          
O        O      0.943450000000     0.551050000000     0.272950000000     0          
O        O      0.952050000000     0.600750000000     0.328266666667     0          
O        O      0.922900000000     0.841900000000     0.311766666667     0          
O        O      0.943450000000     0.849600000000     0.228283333333     0          
O        O      0.882500000000     0.810100000000     0.250466666667     0          
O        O      0.827300000000     0.793450000000     0.310150000000     0          
O        O      0.851600000000     0.750000000000     0.250000000000     0          
O        O      0.806550000000     0.801050000000     0.227050000000     0          
O        O      0.750000000000     0.798350000000     0.166666666667     0          
O        O      0.797950000000     0.850750000000     0.171733333333     0          
O        O      0.750000000000     0.903050000000     0.166666666667     0          
O        O      0.577100000000     0.658100000000     0.311766666667     0          
O        O      0.556550000000     0.650400000000     0.228283333333     0          
O        O      0.617500000000     0.689900000000     0.250466666667     0          
O        O      0.672700000000     0.706550000000     0.310150000000     0          
O        O      0.648400000000     0.750000000000     0.250000000000     0          
O        O      0.693450000000     0.698950000000     0.227050000000     0          
O        O      0.750000000000     0.701650000000     0.166666666667     0          
O        O      0.702050000000     0.649250000000     0.171733333333     0          
O        O      0.750000000000     0.596950000000     0.166666666667     0          
O        O      0.922900000000     0.658100000000     0.188233333333     0          
O        O      0.943450000000     0.650400000000     0.271716666667     0          
O        O      0.882500000000     0.689900000000     0.249533333333     0          
O        O      0.827300000000     0.706550000000     0.189850000000     0          
O        O      0.806550000000     0.698950000000     0.272950000000     0          
O        O      0.797950000000     0.649250000000     0.328266666667     0          
O        O      0.577100000000     0.841900000000     0.188233333333     0          
O        O      0.556550000000     0.849600000000     0.271716666667     0          
O        O      0.617500000000     0.810100000000     0.249533333333     0          
O        O      0.672700000000     0.793450000000     0.189850000000     0          
O        O      0.693450000000     0.801050000000     0.272950000000     0          
O        O      0.702050000000     0.850750000000     0.328266666667     0          
O        O      0.672900000000     0.591900000000     0.478433333333     0          
O        O      0.693450000000     0.599600000000     0.394950000000     0          
O        O      0.625000000000     0.625000000000     0.424316666667     0          
O        O      0.632500000000     0.560100000000     0.417133333333     0          
O        O      0.577300000000     0.543450000000     0.476816666667     0          
O        O      0.601600000000     0.500000000000     0.416666666667     0          
O        O      0.556550000000     0.551050000000     0.393716666667     0          
O        O      0.500000000000     0.548350000000     0.333333333333     0          
O        O      0.547950000000     0.600750000000     0.338400000000     0          
O        O      0.500000000000     0.653050000000     0.333333333333     0          
O        O      0.827100000000     0.908100000000     0.478433333333     0          
O        O      0.806550000000     0.900400000000     0.394950000000     0          
O        O      0.875000000000     0.875000000000     0.424316666667     0          
O        O      0.867500000000     0.939900000000     0.417133333333     0          
O        O      0.922700000000     0.956550000000     0.476816666667     0          
O        O      0.898400000000     0.500000000000     0.416666666667     0          
O        O      0.943450000000     0.948950000000     0.393716666667     0          
O        O      0.500000000000     0.951650000000     0.333333333333     0          
O        O      0.952050000000     0.899250000000     0.338400000000     0          
O        O      0.500000000000     0.846950000000     0.333333333333     0          
O        O      0.672900000000     0.908100000000     0.354900000000     0          
O        O      0.693450000000     0.900400000000     0.438383333333     0          
O        O      0.625000000000     0.875000000000     0.409016666667     0          
O        O      0.632500000000     0.939900000000     0.416200000000     0          
O        O      0.577300000000     0.956550000000     0.356516666667     0          
O        O      0.556550000000     0.948950000000     0.439616666667     0          
O        O      0.547950000000     0.899250000000     0.494933333333     0          
O        O      0.827100000000     0.591900000000     0.354900000000     0          
O        O      0.806550000000     0.599600000000     0.438383333333     0          
O        O      0.875000000000     0.625000000000     0.409016666667     0          
O        O      0.867500000000     0.560100000000     0.416200000000     0          
O        O      0.922700000000     0.543450000000     0.356516666667     0          
O        O      0.943450000000     0.551050000000     0.439616666667     0          
O        O      0.952050000000     0.600750000000     0.494933333333     0          
O        O      0.922900000000     0.841900000000     0.478433333333     0          
O        O      0.943450000000     0.849600000000     0.394950000000     0          
O        O      0.882500000000     0.810100000000     0.417133333333     0          
O        O      0.827300000000     0.793450000000     0.476816666667     0          
O        O      0.851600000000     0.750000000000     0.416666666667     0          
O        O      0.806550000000     0.801050000000     0.393716666667     0          
O        O      0.750000000000     0.798350000000     0.333333333333     0          
O        O      0.797950000000     0.850750000000     0.338400000000     0          
O        O      0.750000000000     0.903050000000     0.333333333333     0          
O        O      0.577100000000     0.658100000000     0.478433333333     0          
O        O      0.556550000000     0.650400000000     0.394950000000     0          
O        O      0.617500000000     0.689900000000     0.417133333333     0          
O        O      0.672700000000     0.706550000000     0.476816666667     0          
O        O      0.648400000000     0.750000000000     0.416666666667     0          
O        O      0.693450000000     0.698950000000     0.393716666667     0          
O        O      0.750000000000     0.701650000000     0.333333333333     0          
O        O      0.702050000000     0.649250000000     0.338400000000     0          
O        O      0.750000000000     0.596950000000     0.333333333333     0          
O        O      0.922900000000     0.658100000000     0.354900000000     0          
O        O      0.943450000000     0.650400000000     0.438383333333     0          
O        O      0.882500000000     0.689900000000     0.416200000000     0          
O        O      0.827300000000     0.706550000000     0.356516666667     0          
O        O      0.806550000000     0.698950000000     0.439616666667     0          
O        O      0.797950000000     0.649250000000     0.494933333333     0          
O        O      0.577100000000     0.841900000000     0.354900000000     0          
O        O      0.556550000000     0.849600000000     0.438383333333     0          
O        O      0.617500000000     0.810100000000     0.416200000000     0          
O        O      0.672700000000     0.793450000000     0.356516666667     0          
O        O      0.693450000000     0.801050000000     0.439616666667     0          
O        O      0.702050000000     0.850750000000     0.494933333333     0          
O        O      0.672900000000     0.591900000000     0.645100000000     0          
O        O      0.693450000000     0.599600000000     0.561616666667     0          
O        O      0.625000000000     0.625000000000     0.590983333333     0          
O        O      0.632500000000     0.560100000000     0.583800000000     0          
O        O      0.577300000000     0.543450000000     0.643483333333     0          
O        O      0.601600000000     0.500000000000     0.583333333333     0          
O        O      0.556550000000     0.551050000000     0.560383333333     0          
O        O      0.500000000000     0.548350000000     0.500000000000     0          
O        O      0.547950000000     0.600750000000     0.505066666667     0          
O        O      0.500000000000     0.653050000000     0.500000000000     0          
O        O      0.827100000000     0.908100000000     0.645100000000     0          
O        O      0.806550000000     0.900400000000     0.561616666667     0          
O        O      0.875000000000     0.875000000000     0.590983333333     0          
O        O      0.867500000000     0.939900000000     0.583800000000     0          
O        O      0.922700000000     0.956550000000     0.643483333333     0          
O        O      0.898400000000     0.500000000000     0.583333333333     0          
O        O      0.943450000000     0.948950000000     0.560383333333     0          
O        O      0.500000000000     0.951650000000     0.500000000000     0          
O        O      0.952050000000     0.899250000000     0.505066666667     0          
O        O      0.500000000000     0.846950000000     0.500000000000     0          
O        O      0.672900000000     0.908100000000     0.521566666667     0          
O        O      0.693450000000     0.900400000000     0.605050000000     0          
O        O      0.625000000000     0.875000000000     0.575683333333     0          
O        O      0.632500000000     0.939900000000     0.582866666667     0          
O        O      0.577300000000     0.956550000000     0.523183333333     0          
O        O      0.556550000000     0.948950000000     0.606283333333     0          
O        O      0.547950000000     0.899250000000     0.661600000000     0          
O        O      0.827100000000     0.591900000000     0.521566666667     0          
O        O      0.806550000000     0.599600000000     0.605050000000     0          
O        O      0.875000000000     0.625000000000     0.575683333333     0          
O        O      0.867500000000     0.560100000000     0.582866666667     0          
O        O      0.922700000000     0.543450000000     0.523183333333     0          
O        O      0.943450000000     0.551050000000     0.606283333333     0          
O        O      0.952050000000     0.600750000000     0.661600000000     0          
O        O      0.922900000000     0.841900000000     0.645100000000     0          
O        O      0.943450000000     0.849600000000     0.561616666667     0          
O        O      0.882500000000     0.810100000000     0.583800000000     0          
O        O      0.827300000000     0.793450000000     0.643483333333     0          
O        O      0.851600000000     0.750000000000     0.583333333333     0          
O        O      0.806550000000     0.801050000000     0.560383333333     0          
O        O      0.750000000000     0.798350000000     0.500000000000     0          
O        O      0.797950000000     0.850750000000     0.505066666667     0          
O        O      0.750000000000     0.903050000000     0.500000000000     0          
O        O      0.577100000000     0.658100000000     0.645100000000     0          
O        O      0.556550000000     0.650400000000     0.561616666667     0          
O        O      0.617500000000     0.689900000000     0.583800000000     0          
O        O      0.672700000000     0.706550000000     0.643483333333     0          
O        O      0.648400000000     0.750000000000     0.583333333333     0          
O        O      0.693450000000     0.698950000000     0.560383333333     0          
O        O      0.750000000000     0.701650000000     0.500000000000     0          
O        O      0.702050000000     0.649250000000     0.505066666667     0          
O        O      0.750000000000     0.596950000000     0.500000000000     0          
O        O      0.922900000000     0.658100000000     0.521566666667     0          
O        O      0.943450000000     0.650400000000     0.605050000000     0          
O        O      0.882500000000     0.689900000000     0.582866666667     0          
O        O      0.827300000000     0.706550000000     0.523183333333     0          
O        O      0.806550000000     0.698950000000     0.606283333333     0          
O        O      0.797950000000     0.649250000000     0.661600000000     0          
O        O      0.577100000000     0.841900000000     0.521566666667     0          
O        O      0.556550000000     0.849600000000     0.605050000000     0          
O        O      0.617500000000     0.810100000000     0.582866666667     0          
O        O      0.672700000000     0.793450000000     0.523183333333     0          
O        O      0.693450000000     0.801050000000     0.606283333333     0          
O        O      0.702050000000     0.850750000000     0.661600000000     0          
O        O      0.672900000000     0.591900000000     0.811766666667     0          
O        O      0.693450000000     0.599600000000     0.728283333333     0          
O        O      0.625000000000     0.625000000000     0.757650000000     0          
O        O      0.632500000000     0.560100000000     0.750466666667     0          
O        O      0.577300000000     0.543450000000     0.810150000000     0          
O        O      0.601600000000     0.500000000000     0.750000000000     0          
O        O      0.556550000000     0.551050000000     0.727050000000     0          
O        O      0.500000000000     0.548350000000     0.666666666667     0          
O        O      0.547950000000     0.600750000000     0.671733333333     0          
O        O      0.500000000000     0.653050000000     0.666666666667     0          
O        O      0.827100000000     0.908100000000     0.811766666667     0          
O        O      0.806550000000     0.900400000000     0.728283333333     0          
O        O      0.875000000000     0.875000000000     0.757650000000     0          
O        O      0.867500000000     0.939900000000     0.750466666667     0          
O        O      0.922700000000     0.956550000000     0.810150000000     0          
O        O      0.898400000000     0.500000000000     0.750000000000     0          
O        O      0.943450000000     0.948950000000     0.727050000000     0          
O        O      0.500000000000     0.951650000000     0.666666666667     0          
O        O      0.952050000000     0.899250000000     0.671733333333     0          
O        O      0.500000000000     0.846950000000     0.666666666667     0          
O        O      0.672900000000     0.908100000000     0.688233333333     0          
O        O      0.693450000000     0.900400000000     0.771716666667     0          
O        O      0.625000000000     0.875000000000     0.742350000000     0          
O        O      0.632500000000     0.939900000000     0.749533333333     0          
O        O      0.577300000000     0.956550000000     0.689850000000     0          
O        O      0.556550000000     0.948950000000     0.772950000000     0          
O        O      0.547950000000     0.899250000000     0.828266666667     0          
O        O      0.827100000000     0.591900000000     0.688233333333     0          
O        O      0.806550000000     0.599600000000     0.771716666667     0          
O        O      0.875000000000     0.625000000000     0.742350000000     0          
O        O      0.867500000000     0.560100000000     0.749533333333     0          
O        O      0.922700000000     0.543450000000     0.689850000000     0          
O        O      0.943450000000     0.551050000000     0.772950000000     0          
O        O      0.952050000000     0.600750000000     0.828266666667     0          
O        O      0.922900000000     0.841900000000     0.811766666667     0          
O        O      0.943450000000     0.849600000000     0.728283333333     0          
O        O      0.882500000000     0.810100000000     0.750466666667     0          
O        O      0.827300000000     0.793450000000     0.810150000000     0          
O        O      0.851600000000     0.750000000000     0.750000000000     0          
O        O      0.806550000000     0.801050000000     0.727050000000     0          
O        O      0.750000000000     0.798350000000     0.666666666667     0          
O        O      0.797950000000     0.850750000000     0.671733333333     0          
O        O      0.750000000000     0.903050000000     0.666666666667     0          
O        O      0.577100000000     0.658100000000     0.811766666667     0          
O        O      0.556550000000     0.650400000000     0.728283333333     0          
O        O      0.617500000000     0.689900000000     0.750466666667     0          
O        O      0.672700000000     0.706550000000     0.810150000000     0          
O        O      0.648400000000     0.750000000000     0.750000000000     0          
O        O      0.693450000000     0.698950000000     0.727050000000     0          
O        O      0.750000000000     0.701650000000     0.666666666667     0          
O        O      0.702050000000     0.649250000000     0.671733333333     0          
O        O      0.750000000000     0.596950000000     0.666666666667     0          
O        O      0.922900000000     0.658100000000     0.688233333333     0          
O        O      0.943450000000     0.650400000000     0.771716666667     0          
O        O      0.882500000000     0.689900000000     0.749533333333     0          
O        O      0.827300000000     0.706550000000     0.689850000000     0          
O        O      0.806550000000     0.698950000000     0.772950000000     0          
O        O      0.797950000000     0.649250000000     0.828266666667     0          
O        O      0.577100000000     0.841900000000     0.688233333333     0          
O        O      0.556550000000     0.849600000000     0.771716666667     0          
O        O      0.617500000000     0.810100000000     0.749533333333     0          
O        O      0.672700000000     0.793450000000     0.689850000000     0          
O        O      0.693450000000     0.801050000000     0.772950000000     0          
O        O      0.702050000000     0.850750000000     0.828266666667     0          
O        O      0.672900000000     0.591900000000     0.978433333333     0          
O        O      0.693450000000     0.599600000000     0.894950000000     0          
O        O      0.625000000000     0.625000000000     0.924316666667     0          
O        O      0.632500000000     0.560100000000     0.917133333333     0          
O        O      0.577300000000     0.543450000000     0.976816666667     0          
O        O      0.601600000000     0.500000000000     0.916666666667     0          
O        O      0.556550000000     0.551050000000     0.893716666667     0          
O        O      0.500000000000     0.548350000000     0.833333333333     0          
O        O      0.547950000000     0.600750000000     0.838400000000     0          
O        O      0.500000000000     0.653050000000     0.833333333333     0          
O        O      0.827100000000     0.908100000000     0.978433333333     0          
O        O      0.806550000000     0.900400000000     0.894950000000     0          
O        O      0.875000000000     0.875000000000     0.924316666667     0          
O        O      0.867500000000     0.939900000000     0.917133333333     0          
O        O      0.922700000000     0.956550000000     0.976816666667     0          
O        O      0.898400000000     0.500000000000     0.916666666667     0          
O        O      0.943450000000     0.948950000000     0.893716666667     0          
O        O      0.500000000000     0.951650000000     0.833333333333     0          
O        O      0.952050000000     0.899250000000     0.838400000000     0          
O        O      0.500000000000     0.846950000000     0.833333333333     0          
O        O      0.672900000000     0.908100000000     0.854900000000     0          
O        O      0.693450000000     0.900400000000     0.938383333333     0          
O        O      0.625000000000     0.875000000000     0.909016666667     0          
O        O      0.632500000000     0.939900000000     0.916200000000     0          
O        O      0.577300000000     0.956550000000     0.856516666667     0          
O        O      0.556550000000     0.948950000000     0.939616666667     0          
O        O      0.547950000000     0.899250000000     0.994933333333     0          
O        O      0.827100000000     0.591900000000     0.854900000000     0          
O        O      0.806550000000     0.599600000000     0.938383333333     0          
O        O      0.875000000000     0.625000000000     0.909016666667     0          
O        O      0.867500000000     0.560100000000     0.916200000000     0          
O        O      0.922700000000     0.543450000000     0.856516666667     0          
O        O      0.943450000000     0.551050000000     0.939616666667     0          
O        O      0.952050000000     0.600750000000     0.994933333333     0          
O        O      0.922900000000     0.841900000000     0.978433333333     0          
O        O      0.943450000000     0.849600000000     0.894950000000     0          
O        O      0.882500000000     0.810100000000     0.917133333333     0          
O        O      0.827300000000     0.793450000000     0.976816666667     0          
O        O      0.851600000000     0.750000000000     0.916666666667     0          
O        O      0.806550000000     0.801050000000     0.893716666667     0          
O        O      0.750000000000     0.798350000000     0.833333333333     0          
O        O      0.797950000000     0.850750000000     0.838400000000     0          
O        O      0.750000000000     0.903050000000     0.833333333333     0          
O        O      0.577100000000     0.658100000000     0.978433333333     0          
O        O      0.556550000000     0.650400000000     0.894950000000     0          
O        O      0.617500000000     0.689900000000     0.917133333333     0          
O        O      0.672700000000     0.706550000000     0.976816666667     0          
O        O      0.648400000000     0.750000000000     0.916666666667     0          
O        O      0.693450000000     0.698950000000     0.893716666667     0          
O        O      0.750000000000     0.701650000000     0.833333333333     0          
O        O      0.702050000000     0.649250000000     0.838400000000     0          
O        O      0.750000000000     0.596950000000     0.833333333333     0          
O        O      0.922900000000     0.658100000000     0.854900000000     0          
O        O      0.943450000000     0.650400000000     0.938383333333     0          
O        O      0.882500000000     0.689900000000     0.916200000000     0          
O        O      0.827300000000     0.706550000000     0.856516666667     0          
O        O      0.806550000000     0.698950000000     0.939616666667     0          
O        O      0.797950000000     0.649250000000     0.994933333333     0          
O        O      0.577100000000     0.841900000000     0.854900000000     0          
O        O      0.556550000000     0.849600000000     0.938383333333     0          
O        O      0.617500000000     0.810100000000     0.916200000000     0          
O        O      0.672700000000     0.793450000000     0.856516666667     0          
O        O      0.693450000000     0.801050000000     0.939616666667     0          
O        O      0.702050000000     0.850750000000     0.994933333333     0          


