data_zeolite

_audit_creation_method RASPA-1.0
_audit_creation_date 2021-6-7
_audit_author_name ''

_cell_length_a    37.482
_cell_length_b    37.482
_cell_length_c    26.27
_cell_angle_alpha 90
_cell_angle_beta  90
_cell_angle_gamma 120
_cell_volume      31962.2

_symmetry_cell_setting          hexagonal
_symmetry_space_group_name_Hall 'P 1'
_symmetry_space_group_name_H-M  'P 1'
_symmetry_Int_Tables_number     1

_symmetry_equiv_pos_as_xyz 'x,y,z'

loop_
_atom_site_label
_atom_site_type_symbol
_atom_site_fract_x
_atom_site_fract_y
_atom_site_fract_z
_atom_site_charge
O        O      0.000000000000     0.118833333333     0.100000000000     0          
O        O      0.066200000000     0.132400000000     0.150000000000     0          
O        O      0.043300000000     0.188333333333     0.150000000000     0          
T        Si     0.027400000000     0.139666666667     0.150000000000     0          
O        O      0.214500000000     0.000000000000     0.000000000000     0          
O        O      0.267133333333     0.066200000000     0.050000000000     0          
O        O      0.188300000000     0.043300000000     0.050000000000     0          
T        Si     0.221066666667     0.027400000000     0.050000000000     0          
O        O      0.214500000000     0.214500000000     0.100000000000     0          
O        O      0.200933333333     0.267133333333     0.150000000000     0          
O        O      0.145000000000     0.188300000000     0.150000000000     0          
T        Si     0.193666666667     0.221066666667     0.150000000000     0          
O        O      0.000000000000     0.214500000000     0.000000000000     0          
O        O      0.267133333333     0.200933333333     0.050000000000     0          
O        O      0.290033333333     0.145000000000     0.050000000000     0          
T        Si     0.305933333333     0.193666666667     0.050000000000     0          
O        O      0.118833333333     0.000000000000     0.100000000000     0          
O        O      0.066200000000     0.267133333333     0.150000000000     0          
O        O      0.145033333333     0.290033333333     0.150000000000     0          
T        Si     0.112266666667     0.305933333333     0.150000000000     0          
O        O      0.118833333333     0.118833333333     0.000000000000     0          
O        O      0.132400000000     0.066200000000     0.050000000000     0          
O        O      0.188333333333     0.145033333333     0.050000000000     0          
T        Si     0.139666666667     0.112266666667     0.050000000000     0          
T        Si     0.193666666667     0.305933333333     0.150000000000     0          
T        Si     0.221066666667     0.193666666667     0.050000000000     0          
T        Si     0.027400000000     0.221066666667     0.150000000000     0          
T        Si     0.139666666667     0.027400000000     0.050000000000     0          
T        Si     0.112266666667     0.139666666667     0.150000000000     0          
T        Si     0.305933333333     0.112266666667     0.050000000000     0          
O        O      0.000000000000     0.214500000000     0.100000000000     0          
O        O      0.118833333333     0.000000000000     0.000000000000     0          
O        O      0.118833333333     0.118833333333     0.100000000000     0          
O        O      0.000000000000     0.118833333333     0.000000000000     0          
O        O      0.214500000000     0.000000000000     0.100000000000     0          
O        O      0.214500000000     0.214500000000     0.000000000000     0          
O        O      0.000000000000     0.118833333333     0.300000000000     0          
O        O      0.066200000000     0.132400000000     0.350000000000     0          
O        O      0.043300000000     0.188333333333     0.350000000000     0          
T        Si     0.027400000000     0.139666666667     0.350000000000     0          
O        O      0.214500000000     0.000000000000     0.200000000000     0          
O        O      0.267133333333     0.066200000000     0.250000000000     0          
O        O      0.188300000000     0.043300000000     0.250000000000     0          
T        Si     0.221066666667     0.027400000000     0.250000000000     0          
O        O      0.214500000000     0.214500000000     0.300000000000     0          
O        O      0.200933333333     0.267133333333     0.350000000000     0          
O        O      0.145000000000     0.188300000000     0.350000000000     0          
T        Si     0.193666666667     0.221066666667     0.350000000000     0          
O        O      0.000000000000     0.214500000000     0.200000000000     0          
O        O      0.267133333333     0.200933333333     0.250000000000     0          
O        O      0.290033333333     0.145000000000     0.250000000000     0          
T        Si     0.305933333333     0.193666666667     0.250000000000     0          
O        O      0.118833333333     0.000000000000     0.300000000000     0          
O        O      0.066200000000     0.267133333333     0.350000000000     0          
O        O      0.145033333333     0.290033333333     0.350000000000     0          
T        Si     0.112266666667     0.305933333333     0.350000000000     0          
O        O      0.118833333333     0.118833333333     0.200000000000     0          
O        O      0.132400000000     0.066200000000     0.250000000000     0          
O        O      0.188333333333     0.145033333333     0.250000000000     0          
T        Si     0.139666666667     0.112266666667     0.250000000000     0          
T        Si     0.193666666667     0.305933333333     0.350000000000     0          
T        Si     0.221066666667     0.193666666667     0.250000000000     0          
T        Si     0.027400000000     0.221066666667     0.350000000000     0          
T        Si     0.139666666667     0.027400000000     0.250000000000     0          
T        Si     0.112266666667     0.139666666667     0.350000000000     0          
T        Si     0.305933333333     0.112266666667     0.250000000000     0          
O        O      0.000000000000     0.214500000000     0.300000000000     0          
O        O      0.118833333333     0.000000000000     0.200000000000     0          
O        O      0.118833333333     0.118833333333     0.300000000000     0          
O        O      0.000000000000     0.118833333333     0.200000000000     0          
O        O      0.214500000000     0.000000000000     0.300000000000     0          
O        O      0.214500000000     0.214500000000     0.200000000000     0          
O        O      0.000000000000     0.118833333333     0.500000000000     0          
O        O      0.066200000000     0.132400000000     0.550000000000     0          
O        O      0.043300000000     0.188333333333     0.550000000000     0          
T        Si     0.027400000000     0.139666666667     0.550000000000     0          
O        O      0.214500000000     0.000000000000     0.400000000000     0          
O        O      0.267133333333     0.066200000000     0.450000000000     0          
O        O      0.188300000000     0.043300000000     0.450000000000     0          
T        Si     0.221066666667     0.027400000000     0.450000000000     0          
O        O      0.214500000000     0.214500000000     0.500000000000     0          
O        O      0.200933333333     0.267133333333     0.550000000000     0          
O        O      0.145000000000     0.188300000000     0.550000000000     0          
T        Si     0.193666666667     0.221066666667     0.550000000000     0          
O        O      0.000000000000     0.214500000000     0.400000000000     0          
O        O      0.267133333333     0.200933333333     0.450000000000     0          
O        O      0.290033333333     0.145000000000     0.450000000000     0          
T        Si     0.305933333333     0.193666666667     0.450000000000     0          
O        O      0.118833333333     0.000000000000     0.500000000000     0          
O        O      0.066200000000     0.267133333333     0.550000000000     0          
O        O      0.145033333333     0.290033333333     0.550000000000     0          
T        Si     0.112266666667     0.305933333333     0.550000000000     0          
O        O      0.118833333333     0.118833333333     0.400000000000     0          
O        O      0.132400000000     0.066200000000     0.450000000000     0          
O        O      0.188333333333     0.145033333333     0.450000000000     0          
T        Si     0.139666666667     0.112266666667     0.450000000000     0          
T        Si     0.193666666667     0.305933333333     0.550000000000     0          
T        Si     0.221066666667     0.193666666667     0.450000000000     0          
T        Si     0.027400000000     0.221066666667     0.550000000000     0          
T        Si     0.139666666667     0.027400000000     0.450000000000     0          
T        Si     0.112266666667     0.139666666667     0.550000000000     0          
T        Si     0.305933333333     0.112266666667     0.450000000000     0          
O        O      0.000000000000     0.214500000000     0.500000000000     0          
O        O      0.118833333333     0.000000000000     0.400000000000     0          
O        O      0.118833333333     0.118833333333     0.500000000000     0          
O        O      0.000000000000     0.118833333333     0.400000000000     0          
O        O      0.214500000000     0.000000000000     0.500000000000     0          
O        O      0.214500000000     0.214500000000     0.400000000000     0          
O        O      0.000000000000     0.118833333333     0.700000000000     0          
O        O      0.066200000000     0.132400000000     0.750000000000     0          
O        O      0.043300000000     0.188333333333     0.750000000000     0          
T        Si     0.027400000000     0.139666666667     0.750000000000     0          
O        O      0.214500000000     0.000000000000     0.600000000000     0          
O        O      0.267133333333     0.066200000000     0.650000000000     0          
O        O      0.188300000000     0.043300000000     0.650000000000     0          
T        Si     0.221066666667     0.027400000000     0.650000000000     0          
O        O      0.214500000000     0.214500000000     0.700000000000     0          
O        O      0.200933333333     0.267133333333     0.750000000000     0          
O        O      0.145000000000     0.188300000000     0.750000000000     0          
T        Si     0.193666666667     0.221066666667     0.750000000000     0          
O        O      0.000000000000     0.214500000000     0.600000000000     0          
O        O      0.267133333333     0.200933333333     0.650000000000     0          
O        O      0.290033333333     0.145000000000     0.650000000000     0          
T        Si     0.305933333333     0.193666666667     0.650000000000     0          
O        O      0.118833333333     0.000000000000     0.700000000000     0          
O        O      0.066200000000     0.267133333333     0.750000000000     0          
O        O      0.145033333333     0.290033333333     0.750000000000     0          
T        Si     0.112266666667     0.305933333333     0.750000000000     0          
O        O      0.118833333333     0.118833333333     0.600000000000     0          
O        O      0.132400000000     0.066200000000     0.650000000000     0          
O        O      0.188333333333     0.145033333333     0.650000000000     0          
T        Si     0.139666666667     0.112266666667     0.650000000000     0          
T        Si     0.193666666667     0.305933333333     0.750000000000     0          
T        Si     0.221066666667     0.193666666667     0.650000000000     0          
T        Si     0.027400000000     0.221066666667     0.750000000000     0          
T        Si     0.139666666667     0.027400000000     0.650000000000     0          
T        Si     0.112266666667     0.139666666667     0.750000000000     0          
T        Si     0.305933333333     0.112266666667     0.650000000000     0          
O        O      0.000000000000     0.214500000000     0.700000000000     0          
O        O      0.118833333333     0.000000000000     0.600000000000     0          
O        O      0.118833333333     0.118833333333     0.700000000000     0          
O        O      0.000000000000     0.118833333333     0.600000000000     0          
O        O      0.214500000000     0.000000000000     0.700000000000     0          
O        O      0.214500000000     0.214500000000     0.600000000000     0          
O        O      0.000000000000     0.118833333333     0.900000000000     0          
O        O      0.066200000000     0.132400000000     0.950000000000     0          
O        O      0.043300000000     0.188333333333     0.950000000000     0          
T        Si     0.027400000000     0.139666666667     0.950000000000     0          
O        O      0.214500000000     0.000000000000     0.800000000000     0          
O        O      0.267133333333     0.066200000000     0.850000000000     0          
O        O      0.188300000000     0.043300000000     0.850000000000     0          
T        Si     0.221066666667     0.027400000000     0.850000000000     0          
O        O      0.214500000000     0.214500000000     0.900000000000     0          
O        O      0.200933333333     0.267133333333     0.950000000000     0          
O        O      0.145000000000     0.188300000000     0.950000000000     0          
T        Si     0.193666666667     0.221066666667     0.950000000000     0          
O        O      0.000000000000     0.214500000000     0.800000000000     0          
O        O      0.267133333333     0.200933333333     0.850000000000     0          
O        O      0.290033333333     0.145000000000     0.850000000000     0          
T        Si     0.305933333333     0.193666666667     0.850000000000     0          
O        O      0.118833333333     0.000000000000     0.900000000000     0          
O        O      0.066200000000     0.267133333333     0.950000000000     0          
O        O      0.145033333333     0.290033333333     0.950000000000     0          
T        Si     0.112266666667     0.305933333333     0.950000000000     0          
O        O      0.118833333333     0.118833333333     0.800000000000     0          
O        O      0.132400000000     0.066200000000     0.850000000000     0          
O        O      0.188333333333     0.145033333333     0.850000000000     0          
T        Si     0.139666666667     0.112266666667     0.850000000000     0          
T        Si     0.193666666667     0.305933333333     0.950000000000     0          
T        Si     0.221066666667     0.193666666667     0.850000000000     0          
T        Si     0.027400000000     0.221066666667     0.950000000000     0          
T        Si     0.139666666667     0.027400000000     0.850000000000     0          
T        Si     0.112266666667     0.139666666667     0.950000000000     0          
T        Si     0.305933333333     0.112266666667     0.850000000000     0          
O        O      0.000000000000     0.214500000000     0.900000000000     0          
O        O      0.118833333333     0.000000000000     0.800000000000     0          
O        O      0.118833333333     0.118833333333     0.900000000000     0          
O        O      0.000000000000     0.118833333333     0.800000000000     0          
O        O      0.214500000000     0.000000000000     0.900000000000     0          
O        O      0.214500000000     0.214500000000     0.800000000000     0          
O        O      0.000000000000     0.452166666667     0.100000000000     0          
O        O      0.066200000000     0.465733333333     0.150000000000     0          
O        O      0.043300000000     0.521666666667     0.150000000000     0          
T        Si     0.027400000000     0.473000000000     0.150000000000     0          
O        O      0.214500000000     0.333333333333     0.000000000000     0          
O        O      0.267133333333     0.399533333333     0.050000000000     0          
O        O      0.188300000000     0.376633333333     0.050000000000     0          
T        Si     0.221066666667     0.360733333333     0.050000000000     0          
O        O      0.214500000000     0.547833333333     0.100000000000     0          
O        O      0.200933333333     0.600466666667     0.150000000000     0          
O        O      0.145000000000     0.521633333333     0.150000000000     0          
T        Si     0.193666666667     0.554400000000     0.150000000000     0          
O        O      0.000000000000     0.547833333333     0.000000000000     0          
O        O      0.267133333333     0.534266666667     0.050000000000     0          
O        O      0.290033333333     0.478333333333     0.050000000000     0          
T        Si     0.305933333333     0.527000000000     0.050000000000     0          
O        O      0.118833333333     0.333333333333     0.100000000000     0          
O        O      0.066200000000     0.600466666667     0.150000000000     0          
O        O      0.145033333333     0.623366666667     0.150000000000     0          
T        Si     0.112266666667     0.639266666667     0.150000000000     0          
O        O      0.118833333333     0.452166666667     0.000000000000     0          
O        O      0.132400000000     0.399533333333     0.050000000000     0          
O        O      0.188333333333     0.478366666667     0.050000000000     0          
T        Si     0.139666666667     0.445600000000     0.050000000000     0          
T        Si     0.193666666667     0.639266666667     0.150000000000     0          
T        Si     0.221066666667     0.527000000000     0.050000000000     0          
T        Si     0.027400000000     0.554400000000     0.150000000000     0          
T        Si     0.139666666667     0.360733333333     0.050000000000     0          
T        Si     0.112266666667     0.473000000000     0.150000000000     0          
T        Si     0.305933333333     0.445600000000     0.050000000000     0          
O        O      0.000000000000     0.547833333333     0.100000000000     0          
O        O      0.118833333333     0.333333333333     0.000000000000     0          
O        O      0.118833333333     0.452166666667     0.100000000000     0          
O        O      0.000000000000     0.452166666667     0.000000000000     0          
O        O      0.214500000000     0.333333333333     0.100000000000     0          
O        O      0.214500000000     0.547833333333     0.000000000000     0          
O        O      0.000000000000     0.452166666667     0.300000000000     0          
O        O      0.066200000000     0.465733333333     0.350000000000     0          
O        O      0.043300000000     0.521666666667     0.350000000000     0          
T        Si     0.027400000000     0.473000000000     0.350000000000     0          
O        O      0.214500000000     0.333333333333     0.200000000000     0          
O        O      0.267133333333     0.399533333333     0.250000000000     0          
O        O      0.188300000000     0.376633333333     0.250000000000     0          
T        Si     0.221066666667     0.360733333333     0.250000000000     0          
O        O      0.214500000000     0.547833333333     0.300000000000     0          
O        O      0.200933333333     0.600466666667     0.350000000000     0          
O        O      0.145000000000     0.521633333333     0.350000000000     0          
T        Si     0.193666666667     0.554400000000     0.350000000000     0          
O        O      0.000000000000     0.547833333333     0.200000000000     0          
O        O      0.267133333333     0.534266666667     0.250000000000     0          
O        O      0.290033333333     0.478333333333     0.250000000000     0          
T        Si     0.305933333333     0.527000000000     0.250000000000     0          
O        O      0.118833333333     0.333333333333     0.300000000000     0          
O        O      0.066200000000     0.600466666667     0.350000000000     0          
O        O      0.145033333333     0.623366666667     0.350000000000     0          
T        Si     0.112266666667     0.639266666667     0.350000000000     0          
O        O      0.118833333333     0.452166666667     0.200000000000     0          
O        O      0.132400000000     0.399533333333     0.250000000000     0          
O        O      0.188333333333     0.478366666667     0.250000000000     0          
T        Si     0.139666666667     0.445600000000     0.250000000000     0          
T        Si     0.193666666667     0.639266666667     0.350000000000     0          
T        Si     0.221066666667     0.527000000000     0.250000000000     0          
T        Si     0.027400000000     0.554400000000     0.350000000000     0          
T        Si     0.139666666667     0.360733333333     0.250000000000     0          
T        Si     0.112266666667     0.473000000000     0.350000000000     0          
T        Si     0.305933333333     0.445600000000     0.250000000000     0          
O        O      0.000000000000     0.547833333333     0.300000000000     0          
O        O      0.118833333333     0.333333333333     0.200000000000     0          
O        O      0.118833333333     0.452166666667     0.300000000000     0          
O        O      0.000000000000     0.452166666667     0.200000000000     0          
O        O      0.214500000000     0.333333333333     0.300000000000     0          
O        O      0.214500000000     0.547833333333     0.200000000000     0          
O        O      0.000000000000     0.452166666667     0.500000000000     0          
O        O      0.066200000000     0.465733333333     0.550000000000     0          
O        O      0.043300000000     0.521666666667     0.550000000000     0          
T        Si     0.027400000000     0.473000000000     0.550000000000     0          
O        O      0.214500000000     0.333333333333     0.400000000000     0          
O        O      0.267133333333     0.399533333333     0.450000000000     0          
O        O      0.188300000000     0.376633333333     0.450000000000     0          
T        Si     0.221066666667     0.360733333333     0.450000000000     0          
O        O      0.214500000000     0.547833333333     0.500000000000     0          
O        O      0.200933333333     0.600466666667     0.550000000000     0          
O        O      0.145000000000     0.521633333333     0.550000000000     0          
T        Si     0.193666666667     0.554400000000     0.550000000000     0          
O        O      0.000000000000     0.547833333333     0.400000000000     0          
O        O      0.267133333333     0.534266666667     0.450000000000     0          
O        O      0.290033333333     0.478333333333     0.450000000000     0          
T        Si     0.305933333333     0.527000000000     0.450000000000     0          
O        O      0.118833333333     0.333333333333     0.500000000000     0          
O        O      0.066200000000     0.600466666667     0.550000000000     0          
O        O      0.145033333333     0.623366666667     0.550000000000     0          
T        Si     0.112266666667     0.639266666667     0.550000000000     0          
O        O      0.118833333333     0.452166666667     0.400000000000     0          
O        O      0.132400000000     0.399533333333     0.450000000000     0          
O        O      0.188333333333     0.478366666667     0.450000000000     0          
T        Si     0.139666666667     0.445600000000     0.450000000000     0          
T        Si     0.193666666667     0.639266666667     0.550000000000     0          
T        Si     0.221066666667     0.527000000000     0.450000000000     0          
T        Si     0.027400000000     0.554400000000     0.550000000000     0          
T        Si     0.139666666667     0.360733333333     0.450000000000     0          
T        Si     0.112266666667     0.473000000000     0.550000000000     0          
T        Si     0.305933333333     0.445600000000     0.450000000000     0          
O        O      0.000000000000     0.547833333333     0.500000000000     0          
O        O      0.118833333333     0.333333333333     0.400000000000     0          
O        O      0.118833333333     0.452166666667     0.500000000000     0          
O        O      0.000000000000     0.452166666667     0.400000000000     0          
O        O      0.214500000000     0.333333333333     0.500000000000     0          
O        O      0.214500000000     0.547833333333     0.400000000000     0          
O        O      0.000000000000     0.452166666667     0.700000000000     0          
O        O      0.066200000000     0.465733333333     0.750000000000     0          
O        O      0.043300000000     0.521666666667     0.750000000000     0          
T        Si     0.027400000000     0.473000000000     0.750000000000     0          
O        O      0.214500000000     0.333333333333     0.600000000000     0          
O        O      0.267133333333     0.399533333333     0.650000000000     0          
O        O      0.188300000000     0.376633333333     0.650000000000     0          
T        Si     0.221066666667     0.360733333333     0.650000000000     0          
O        O      0.214500000000     0.547833333333     0.700000000000     0          
O        O      0.200933333333     0.600466666667     0.750000000000     0          
O        O      0.145000000000     0.521633333333     0.750000000000     0          
T        Si     0.193666666667     0.554400000000     0.750000000000     0          
O        O      0.000000000000     0.547833333333     0.600000000000     0          
O        O      0.267133333333     0.534266666667     0.650000000000     0          
O        O      0.290033333333     0.478333333333     0.650000000000     0          
T        Si     0.305933333333     0.527000000000     0.650000000000     0          
O        O      0.118833333333     0.333333333333     0.700000000000     0          
O        O      0.066200000000     0.600466666667     0.750000000000     0          
O        O      0.145033333333     0.623366666667     0.750000000000     0          
T        Si     0.112266666667     0.639266666667     0.750000000000     0          
O        O      0.118833333333     0.452166666667     0.600000000000     0          
O        O      0.132400000000     0.399533333333     0.650000000000     0          
O        O      0.188333333333     0.478366666667     0.650000000000     0          
T        Si     0.139666666667     0.445600000000     0.650000000000     0          
T        Si     0.193666666667     0.639266666667     0.750000000000     0          
T        Si     0.221066666667     0.527000000000     0.650000000000     0          
T        Si     0.027400000000     0.554400000000     0.750000000000     0          
T        Si     0.139666666667     0.360733333333     0.650000000000     0          
T        Si     0.112266666667     0.473000000000     0.750000000000     0          
T        Si     0.305933333333     0.445600000000     0.650000000000     0          
O        O      0.000000000000     0.547833333333     0.700000000000     0          
O        O      0.118833333333     0.333333333333     0.600000000000     0          
O        O      0.118833333333     0.452166666667     0.700000000000     0          
O        O      0.000000000000     0.452166666667     0.600000000000     0          
O        O      0.214500000000     0.333333333333     0.700000000000     0          
O        O      0.214500000000     0.547833333333     0.600000000000     0          
O        O      0.000000000000     0.452166666667     0.900000000000     0          
O        O      0.066200000000     0.465733333333     0.950000000000     0          
O        O      0.043300000000     0.521666666667     0.950000000000     0          
T        Si     0.027400000000     0.473000000000     0.950000000000     0          
O        O      0.214500000000     0.333333333333     0.800000000000     0          
O        O      0.267133333333     0.399533333333     0.850000000000     0          
O        O      0.188300000000     0.376633333333     0.850000000000     0          
T        Si     0.221066666667     0.360733333333     0.850000000000     0          
O        O      0.214500000000     0.547833333333     0.900000000000     0          
O        O      0.200933333333     0.600466666667     0.950000000000     0          
O        O      0.145000000000     0.521633333333     0.950000000000     0          
T        Si     0.193666666667     0.554400000000     0.950000000000     0          
O        O      0.000000000000     0.547833333333     0.800000000000     0          
O        O      0.267133333333     0.534266666667     0.850000000000     0          
O        O      0.290033333333     0.478333333333     0.850000000000     0          
T        Si     0.305933333333     0.527000000000     0.850000000000     0          
O        O      0.118833333333     0.333333333333     0.900000000000     0          
O        O      0.066200000000     0.600466666667     0.950000000000     0          
O        O      0.145033333333     0.623366666667     0.950000000000     0          
T        Si     0.112266666667     0.639266666667     0.950000000000     0          
O        O      0.118833333333     0.452166666667     0.800000000000     0          
O        O      0.132400000000     0.399533333333     0.850000000000     0          
O        O      0.188333333333     0.478366666667     0.850000000000     0          
T        Si     0.139666666667     0.445600000000     0.850000000000     0          
T        Si     0.193666666667     0.639266666667     0.950000000000     0          
T        Si     0.221066666667     0.527000000000     0.850000000000     0          
T        Si     0.027400000000     0.554400000000     0.950000000000     0          
T        Si     0.139666666667     0.360733333333     0.850000000000     0          
T        Si     0.112266666667     0.473000000000     0.950000000000     0          
T        Si     0.305933333333     0.445600000000     0.850000000000     0          
O        O      0.000000000000     0.547833333333     0.900000000000     0          
O        O      0.118833333333     0.333333333333     0.800000000000     0          
O        O      0.118833333333     0.452166666667     0.900000000000     0          
O        O      0.000000000000     0.452166666667     0.800000000000     0          
O        O      0.214500000000     0.333333333333     0.900000000000     0          
O        O      0.214500000000     0.547833333333     0.800000000000     0          
O        O      0.000000000000     0.785500000000     0.100000000000     0          
O        O      0.066200000000     0.799066666667     0.150000000000     0          
O        O      0.043300000000     0.855000000000     0.150000000000     0          
T        Si     0.027400000000     0.806333333333     0.150000000000     0          
O        O      0.214500000000     0.666666666667     0.000000000000     0          
O        O      0.267133333333     0.732866666667     0.050000000000     0          
O        O      0.188300000000     0.709966666667     0.050000000000     0          
T        Si     0.221066666667     0.694066666667     0.050000000000     0          
O        O      0.214500000000     0.881166666667     0.100000000000     0          
O        O      0.200933333333     0.933800000000     0.150000000000     0          
O        O      0.145000000000     0.854966666667     0.150000000000     0          
T        Si     0.193666666667     0.887733333333     0.150000000000     0          
O        O      0.000000000000     0.881166666667     0.000000000000     0          
O        O      0.267133333333     0.867600000000     0.050000000000     0          
O        O      0.290033333333     0.811666666667     0.050000000000     0          
T        Si     0.305933333333     0.860333333333     0.050000000000     0          
O        O      0.118833333333     0.666666666667     0.100000000000     0          
O        O      0.066200000000     0.933800000000     0.150000000000     0          
O        O      0.145033333333     0.956700000000     0.150000000000     0          
T        Si     0.112266666667     0.972600000000     0.150000000000     0          
O        O      0.118833333333     0.785500000000     0.000000000000     0          
O        O      0.132400000000     0.732866666667     0.050000000000     0          
O        O      0.188333333333     0.811700000000     0.050000000000     0          
T        Si     0.139666666667     0.778933333333     0.050000000000     0          
T        Si     0.193666666667     0.972600000000     0.150000000000     0          
T        Si     0.221066666667     0.860333333333     0.050000000000     0          
T        Si     0.027400000000     0.887733333333     0.150000000000     0          
T        Si     0.139666666667     0.694066666667     0.050000000000     0          
T        Si     0.112266666667     0.806333333333     0.150000000000     0          
T        Si     0.305933333333     0.778933333333     0.050000000000     0          
O        O      0.000000000000     0.881166666667     0.100000000000     0          
O        O      0.118833333333     0.666666666667     0.000000000000     0          
O        O      0.118833333333     0.785500000000     0.100000000000     0          
O        O      0.000000000000     0.785500000000     0.000000000000     0          
O        O      0.214500000000     0.666666666667     0.100000000000     0          
O        O      0.214500000000     0.881166666667     0.000000000000     0          
O        O      0.000000000000     0.785500000000     0.300000000000     0          
O        O      0.066200000000     0.799066666667     0.350000000000     0          
O        O      0.043300000000     0.855000000000     0.350000000000     0          
T        Si     0.027400000000     0.806333333333     0.350000000000     0          
O        O      0.214500000000     0.666666666667     0.200000000000     0          
O        O      0.267133333333     0.732866666667     0.250000000000     0          
O        O      0.188300000000     0.709966666667     0.250000000000     0          
T        Si     0.221066666667     0.694066666667     0.250000000000     0          
O        O      0.214500000000     0.881166666667     0.300000000000     0          
O        O      0.200933333333     0.933800000000     0.350000000000     0          
O        O      0.145000000000     0.854966666667     0.350000000000     0          
T        Si     0.193666666667     0.887733333333     0.350000000000     0          
O        O      0.000000000000     0.881166666667     0.200000000000     0          
O        O      0.267133333333     0.867600000000     0.250000000000     0          
O        O      0.290033333333     0.811666666667     0.250000000000     0          
T        Si     0.305933333333     0.860333333333     0.250000000000     0          
O        O      0.118833333333     0.666666666667     0.300000000000     0          
O        O      0.066200000000     0.933800000000     0.350000000000     0          
O        O      0.145033333333     0.956700000000     0.350000000000     0          
T        Si     0.112266666667     0.972600000000     0.350000000000     0          
O        O      0.118833333333     0.785500000000     0.200000000000     0          
O        O      0.132400000000     0.732866666667     0.250000000000     0          
O        O      0.188333333333     0.811700000000     0.250000000000     0          
T        Si     0.139666666667     0.778933333333     0.250000000000     0          
T        Si     0.193666666667     0.972600000000     0.350000000000     0          
T        Si     0.221066666667     0.860333333333     0.250000000000     0          
T        Si     0.027400000000     0.887733333333     0.350000000000     0          
T        Si     0.139666666667     0.694066666667     0.250000000000     0          
T        Si     0.112266666667     0.806333333333     0.350000000000     0          
T        Si     0.305933333333     0.778933333333     0.250000000000     0          
O        O      0.000000000000     0.881166666667     0.300000000000     0          
O        O      0.118833333333     0.666666666667     0.200000000000     0          
O        O      0.118833333333     0.785500000000     0.300000000000     0          
O        O      0.000000000000     0.785500000000     0.200000000000     0          
O        O      0.214500000000     0.666666666667     0.300000000000     0          
O        O      0.214500000000     0.881166666667     0.200000000000     0          
O        O      0.000000000000     0.785500000000     0.500000000000     0          
O        O      0.066200000000     0.799066666667     0.550000000000     0          
O        O      0.043300000000     0.855000000000     0.550000000000     0          
T        Si     0.027400000000     0.806333333333     0.550000000000     0          
O        O      0.214500000000     0.666666666667     0.400000000000     0          
O        O      0.267133333333     0.732866666667     0.450000000000     0          
O        O      0.188300000000     0.709966666667     0.450000000000     0          
T        Si     0.221066666667     0.694066666667     0.450000000000     0          
O        O      0.214500000000     0.881166666667     0.500000000000     0          
O        O      0.200933333333     0.933800000000     0.550000000000     0          
O        O      0.145000000000     0.854966666667     0.550000000000     0          
T        Si     0.193666666667     0.887733333333     0.550000000000     0          
O        O      0.000000000000     0.881166666667     0.400000000000     0          
O        O      0.267133333333     0.867600000000     0.450000000000     0          
O        O      0.290033333333     0.811666666667     0.450000000000     0          
T        Si     0.305933333333     0.860333333333     0.450000000000     0          
O        O      0.118833333333     0.666666666667     0.500000000000     0          
O        O      0.066200000000     0.933800000000     0.550000000000     0          
O        O      0.145033333333     0.956700000000     0.550000000000     0          
T        Si     0.112266666667     0.972600000000     0.550000000000     0          
O        O      0.118833333333     0.785500000000     0.400000000000     0          
O        O      0.132400000000     0.732866666667     0.450000000000     0          
O        O      0.188333333333     0.811700000000     0.450000000000     0          
T        Si     0.139666666667     0.778933333333     0.450000000000     0          
T        Si     0.193666666667     0.972600000000     0.550000000000     0          
T        Si     0.221066666667     0.860333333333     0.450000000000     0          
T        Si     0.027400000000     0.887733333333     0.550000000000     0          
T        Si     0.139666666667     0.694066666667     0.450000000000     0          
T        Si     0.112266666667     0.806333333333     0.550000000000     0          
T        Si     0.305933333333     0.778933333333     0.450000000000     0          
O        O      0.000000000000     0.881166666667     0.500000000000     0          
O        O      0.118833333333     0.666666666667     0.400000000000     0          
O        O      0.118833333333     0.785500000000     0.500000000000     0          
O        O      0.000000000000     0.785500000000     0.400000000000     0          
O        O      0.214500000000     0.666666666667     0.500000000000     0          
O        O      0.214500000000     0.881166666667     0.400000000000     0          
O        O      0.000000000000     0.785500000000     0.700000000000     0          
O        O      0.066200000000     0.799066666667     0.750000000000     0          
O        O      0.043300000000     0.855000000000     0.750000000000     0          
T        Si     0.027400000000     0.806333333333     0.750000000000     0          
O        O      0.214500000000     0.666666666667     0.600000000000     0          
O        O      0.267133333333     0.732866666667     0.650000000000     0          
O        O      0.188300000000     0.709966666667     0.650000000000     0          
T        Si     0.221066666667     0.694066666667     0.650000000000     0          
O        O      0.214500000000     0.881166666667     0.700000000000     0          
O        O      0.200933333333     0.933800000000     0.750000000000     0          
O        O      0.145000000000     0.854966666667     0.750000000000     0          
T        Si     0.193666666667     0.887733333333     0.750000000000     0          
O        O      0.000000000000     0.881166666667     0.600000000000     0          
O        O      0.267133333333     0.867600000000     0.650000000000     0          
O        O      0.290033333333     0.811666666667     0.650000000000     0          
T        Si     0.305933333333     0.860333333333     0.650000000000     0          
O        O      0.118833333333     0.666666666667     0.700000000000     0          
O        O      0.066200000000     0.933800000000     0.750000000000     0          
O        O      0.145033333333     0.956700000000     0.750000000000     0          
T        Si     0.112266666667     0.972600000000     0.750000000000     0          
O        O      0.118833333333     0.785500000000     0.600000000000     0          
O        O      0.132400000000     0.732866666667     0.650000000000     0          
O        O      0.188333333333     0.811700000000     0.650000000000     0          
T        Si     0.139666666667     0.778933333333     0.650000000000     0          
T        Si     0.193666666667     0.972600000000     0.750000000000     0          
T        Si     0.221066666667     0.860333333333     0.650000000000     0          
T        Si     0.027400000000     0.887733333333     0.750000000000     0          
T        Si     0.139666666667     0.694066666667     0.650000000000     0          
T        Si     0.112266666667     0.806333333333     0.750000000000     0          
T        Si     0.305933333333     0.778933333333     0.650000000000     0          
O        O      0.000000000000     0.881166666667     0.700000000000     0          
O        O      0.118833333333     0.666666666667     0.600000000000     0          
O        O      0.118833333333     0.785500000000     0.700000000000     0          
O        O      0.000000000000     0.785500000000     0.600000000000     0          
O        O      0.214500000000     0.666666666667     0.700000000000     0          
O        O      0.214500000000     0.881166666667     0.600000000000     0          
O        O      0.000000000000     0.785500000000     0.900000000000     0          
O        O      0.066200000000     0.799066666667     0.950000000000     0          
O        O      0.043300000000     0.855000000000     0.950000000000     0          
T        Si     0.027400000000     0.806333333333     0.950000000000     0          
O        O      0.214500000000     0.666666666667     0.800000000000     0          
O        O      0.267133333333     0.732866666667     0.850000000000     0          
O        O      0.188300000000     0.709966666667     0.850000000000     0          
T        Si     0.221066666667     0.694066666667     0.850000000000     0          
O        O      0.214500000000     0.881166666667     0.900000000000     0          
O        O      0.200933333333     0.933800000000     0.950000000000     0          
O        O      0.145000000000     0.854966666667     0.950000000000     0          
T        Si     0.193666666667     0.887733333333     0.950000000000     0          
O        O      0.000000000000     0.881166666667     0.800000000000     0          
O        O      0.267133333333     0.867600000000     0.850000000000     0          
O        O      0.290033333333     0.811666666667     0.850000000000     0          
T        Si     0.305933333333     0.860333333333     0.850000000000     0          
O        O      0.118833333333     0.666666666667     0.900000000000     0          
O        O      0.066200000000     0.933800000000     0.950000000000     0          
O        O      0.145033333333     0.956700000000     0.950000000000     0          
T        Si     0.112266666667     0.972600000000     0.950000000000     0          
O        O      0.118833333333     0.785500000000     0.800000000000     0          
O        O      0.132400000000     0.732866666667     0.850000000000     0          
O        O      0.188333333333     0.811700000000     0.850000000000     0          
T        Si     0.139666666667     0.778933333333     0.850000000000     0          
T        Si     0.193666666667     0.972600000000     0.950000000000     0          
T        Si     0.221066666667     0.860333333333     0.850000000000     0          
T        Si     0.027400000000     0.887733333333     0.950000000000     0          
T        Si     0.139666666667     0.694066666667     0.850000000000     0          
T        Si     0.112266666667     0.806333333333     0.950000000000     0          
T        Si     0.305933333333     0.778933333333     0.850000000000     0          
O        O      0.000000000000     0.881166666667     0.900000000000     0          
O        O      0.118833333333     0.666666666667     0.800000000000     0          
O        O      0.118833333333     0.785500000000     0.900000000000     0          
O        O      0.000000000000     0.785500000000     0.800000000000     0          
O        O      0.214500000000     0.666666666667     0.900000000000     0          
O        O      0.214500000000     0.881166666667     0.800000000000     0          
O        O      0.333333333333     0.118833333333     0.100000000000     0          
O        O      0.399533333333     0.132400000000     0.150000000000     0          
O        O      0.376633333333     0.188333333333     0.150000000000     0          
T        Si     0.360733333333     0.139666666667     0.150000000000     0          
O        O      0.547833333333     0.000000000000     0.000000000000     0          
O        O      0.600466666667     0.066200000000     0.050000000000     0          
O        O      0.521633333333     0.043300000000     0.050000000000     0          
T        Si     0.554400000000     0.027400000000     0.050000000000     0          
O        O      0.547833333333     0.214500000000     0.100000000000     0          
O        O      0.534266666667     0.267133333333     0.150000000000     0          
O        O      0.478333333333     0.188300000000     0.150000000000     0          
T        Si     0.527000000000     0.221066666667     0.150000000000     0          
O        O      0.333333333333     0.214500000000     0.000000000000     0          
O        O      0.600466666667     0.200933333333     0.050000000000     0          
O        O      0.623366666667     0.145000000000     0.050000000000     0          
T        Si     0.639266666667     0.193666666667     0.050000000000     0          
O        O      0.452166666667     0.000000000000     0.100000000000     0          
O        O      0.399533333333     0.267133333333     0.150000000000     0          
O        O      0.478366666667     0.290033333333     0.150000000000     0          
T        Si     0.445600000000     0.305933333333     0.150000000000     0          
O        O      0.452166666667     0.118833333333     0.000000000000     0          
O        O      0.465733333333     0.066200000000     0.050000000000     0          
O        O      0.521666666667     0.145033333333     0.050000000000     0          
T        Si     0.473000000000     0.112266666667     0.050000000000     0          
T        Si     0.527000000000     0.305933333333     0.150000000000     0          
T        Si     0.554400000000     0.193666666667     0.050000000000     0          
T        Si     0.360733333333     0.221066666667     0.150000000000     0          
T        Si     0.473000000000     0.027400000000     0.050000000000     0          
T        Si     0.445600000000     0.139666666667     0.150000000000     0          
T        Si     0.639266666667     0.112266666667     0.050000000000     0          
O        O      0.333333333333     0.214500000000     0.100000000000     0          
O        O      0.452166666667     0.000000000000     0.000000000000     0          
O        O      0.452166666667     0.118833333333     0.100000000000     0          
O        O      0.333333333333     0.118833333333     0.000000000000     0          
O        O      0.547833333333     0.000000000000     0.100000000000     0          
O        O      0.547833333333     0.214500000000     0.000000000000     0          
O        O      0.333333333333     0.118833333333     0.300000000000     0          
O        O      0.399533333333     0.132400000000     0.350000000000     0          
O        O      0.376633333333     0.188333333333     0.350000000000     0          
T        Si     0.360733333333     0.139666666667     0.350000000000     0          
O        O      0.547833333333     0.000000000000     0.200000000000     0          
O        O      0.600466666667     0.066200000000     0.250000000000     0          
O        O      0.521633333333     0.043300000000     0.250000000000     0          
T        Si     0.554400000000     0.027400000000     0.250000000000     0          
O        O      0.547833333333     0.214500000000     0.300000000000     0          
O        O      0.534266666667     0.267133333333     0.350000000000     0          
O        O      0.478333333333     0.188300000000     0.350000000000     0          
T        Si     0.527000000000     0.221066666667     0.350000000000     0          
O        O      0.333333333333     0.214500000000     0.200000000000     0          
O        O      0.600466666667     0.200933333333     0.250000000000     0          
O        O      0.623366666667     0.145000000000     0.250000000000     0          
T        Si     0.639266666667     0.193666666667     0.250000000000     0          
O        O      0.452166666667     0.000000000000     0.300000000000     0          
O        O      0.399533333333     0.267133333333     0.350000000000     0          
O        O      0.478366666667     0.290033333333     0.350000000000     0          
T        Si     0.445600000000     0.305933333333     0.350000000000     0          
O        O      0.452166666667     0.118833333333     0.200000000000     0          
O        O      0.465733333333     0.066200000000     0.250000000000     0          
O        O      0.521666666667     0.145033333333     0.250000000000     0          
T        Si     0.473000000000     0.112266666667     0.250000000000     0          
T        Si     0.527000000000     0.305933333333     0.350000000000     0          
T        Si     0.554400000000     0.193666666667     0.250000000000     0          
T        Si     0.360733333333     0.221066666667     0.350000000000     0          
T        Si     0.473000000000     0.027400000000     0.250000000000     0          
T        Si     0.445600000000     0.139666666667     0.350000000000     0          
T        Si     0.639266666667     0.112266666667     0.250000000000     0          
O        O      0.333333333333     0.214500000000     0.300000000000     0          
O        O      0.452166666667     0.000000000000     0.200000000000     0          
O        O      0.452166666667     0.118833333333     0.300000000000     0          
O        O      0.333333333333     0.118833333333     0.200000000000     0          
O        O      0.547833333333     0.000000000000     0.300000000000     0          
O        O      0.547833333333     0.214500000000     0.200000000000     0          
O        O      0.333333333333     0.118833333333     0.500000000000     0          
O        O      0.399533333333     0.132400000000     0.550000000000     0          
O        O      0.376633333333     0.188333333333     0.550000000000     0          
T        Si     0.360733333333     0.139666666667     0.550000000000     0          
O        O      0.547833333333     0.000000000000     0.400000000000     0          
O        O      0.600466666667     0.066200000000     0.450000000000     0          
O        O      0.521633333333     0.043300000000     0.450000000000     0          
T        Si     0.554400000000     0.027400000000     0.450000000000     0          
O        O      0.547833333333     0.214500000000     0.500000000000     0          
O        O      0.534266666667     0.267133333333     0.550000000000     0          
O        O      0.478333333333     0.188300000000     0.550000000000     0          
T        Si     0.527000000000     0.221066666667     0.550000000000     0          
O        O      0.333333333333     0.214500000000     0.400000000000     0          
O        O      0.600466666667     0.200933333333     0.450000000000     0          
O        O      0.623366666667     0.145000000000     0.450000000000     0          
T        Si     0.639266666667     0.193666666667     0.450000000000     0          
O        O      0.452166666667     0.000000000000     0.500000000000     0          
O        O      0.399533333333     0.267133333333     0.550000000000     0          
O        O      0.478366666667     0.290033333333     0.550000000000     0          
T        Si     0.445600000000     0.305933333333     0.550000000000     0          
O        O      0.452166666667     0.118833333333     0.400000000000     0          
O        O      0.465733333333     0.066200000000     0.450000000000     0          
O        O      0.521666666667     0.145033333333     0.450000000000     0          
T        Si     0.473000000000     0.112266666667     0.450000000000     0          
T        Si     0.527000000000     0.305933333333     0.550000000000     0          
T        Si     0.554400000000     0.193666666667     0.450000000000     0          
T        Si     0.360733333333     0.221066666667     0.550000000000     0          
T        Si     0.473000000000     0.027400000000     0.450000000000     0          
T        Si     0.445600000000     0.139666666667     0.550000000000     0          
T        Si     0.639266666667     0.112266666667     0.450000000000     0          
O        O      0.333333333333     0.214500000000     0.500000000000     0          
O        O      0.452166666667     0.000000000000     0.400000000000     0          
O        O      0.452166666667     0.118833333333     0.500000000000     0          
O        O      0.333333333333     0.118833333333     0.400000000000     0          
O        O      0.547833333333     0.000000000000     0.500000000000     0          
O        O      0.547833333333     0.214500000000     0.400000000000     0          
O        O      0.333333333333     0.118833333333     0.700000000000     0          
O        O      0.399533333333     0.132400000000     0.750000000000     0          
O        O      0.376633333333     0.188333333333     0.750000000000     0          
T        Si     0.360733333333     0.139666666667     0.750000000000     0          
O        O      0.547833333333     0.000000000000     0.600000000000     0          
O        O      0.600466666667     0.066200000000     0.650000000000     0          
O        O      0.521633333333     0.043300000000     0.650000000000     0          
T        Si     0.554400000000     0.027400000000     0.650000000000     0          
O        O      0.547833333333     0.214500000000     0.700000000000     0          
O        O      0.534266666667     0.267133333333     0.750000000000     0          
O        O      0.478333333333     0.188300000000     0.750000000000     0          
T        Si     0.527000000000     0.221066666667     0.750000000000     0          
O        O      0.333333333333     0.214500000000     0.600000000000     0          
O        O      0.600466666667     0.200933333333     0.650000000000     0          
O        O      0.623366666667     0.145000000000     0.650000000000     0          
T        Si     0.639266666667     0.193666666667     0.650000000000     0          
O        O      0.452166666667     0.000000000000     0.700000000000     0          
O        O      0.399533333333     0.267133333333     0.750000000000     0          
O        O      0.478366666667     0.290033333333     0.750000000000     0          
T        Si     0.445600000000     0.305933333333     0.750000000000     0          
O        O      0.452166666667     0.118833333333     0.600000000000     0          
O        O      0.465733333333     0.066200000000     0.650000000000     0          
O        O      0.521666666667     0.145033333333     0.650000000000     0          
T        Si     0.473000000000     0.112266666667     0.650000000000     0          
T        Si     0.527000000000     0.305933333333     0.750000000000     0          
T        Si     0.554400000000     0.193666666667     0.650000000000     0          
T        Si     0.360733333333     0.221066666667     0.750000000000     0          
T        Si     0.473000000000     0.027400000000     0.650000000000     0          
T        Si     0.445600000000     0.139666666667     0.750000000000     0          
T        Si     0.639266666667     0.112266666667     0.650000000000     0          
O        O      0.333333333333     0.214500000000     0.700000000000     0          
O        O      0.452166666667     0.000000000000     0.600000000000     0          
O        O      0.452166666667     0.118833333333     0.700000000000     0          
O        O      0.333333333333     0.118833333333     0.600000000000     0          
O        O      0.547833333333     0.000000000000     0.700000000000     0          
O        O      0.547833333333     0.214500000000     0.600000000000     0          
O        O      0.333333333333     0.118833333333     0.900000000000     0          
O        O      0.399533333333     0.132400000000     0.950000000000     0          
O        O      0.376633333333     0.188333333333     0.950000000000     0          
T        Si     0.360733333333     0.139666666667     0.950000000000     0          
O        O      0.547833333333     0.000000000000     0.800000000000     0          
O        O      0.600466666667     0.066200000000     0.850000000000     0          
O        O      0.521633333333     0.043300000000     0.850000000000     0          
T        Si     0.554400000000     0.027400000000     0.850000000000     0          
O        O      0.547833333333     0.214500000000     0.900000000000     0          
O        O      0.534266666667     0.267133333333     0.950000000000     0          
O        O      0.478333333333     0.188300000000     0.950000000000     0          
T        Si     0.527000000000     0.221066666667     0.950000000000     0          
O        O      0.333333333333     0.214500000000     0.800000000000     0          
O        O      0.600466666667     0.200933333333     0.850000000000     0          
O        O      0.623366666667     0.145000000000     0.850000000000     0          
T        Si     0.639266666667     0.193666666667     0.850000000000     0          
O        O      0.452166666667     0.000000000000     0.900000000000     0          
O        O      0.399533333333     0.267133333333     0.950000000000     0          
O        O      0.478366666667     0.290033333333     0.950000000000     0          
T        Si     0.445600000000     0.305933333333     0.950000000000     0          
O        O      0.452166666667     0.118833333333     0.800000000000     0          
O        O      0.465733333333     0.066200000000     0.850000000000     0          
O        O      0.521666666667     0.145033333333     0.850000000000     0          
T        Si     0.473000000000     0.112266666667     0.850000000000     0          
T        Si     0.527000000000     0.305933333333     0.950000000000     0          
T        Si     0.554400000000     0.193666666667     0.850000000000     0          
T        Si     0.360733333333     0.221066666667     0.950000000000     0          
T        Si     0.473000000000     0.027400000000     0.850000000000     0          
T        Si     0.445600000000     0.139666666667     0.950000000000     0          
T        Si     0.639266666667     0.112266666667     0.850000000000     0          
O        O      0.333333333333     0.214500000000     0.900000000000     0          
O        O      0.452166666667     0.000000000000     0.800000000000     0          
O        O      0.452166666667     0.118833333333     0.900000000000     0          
O        O      0.333333333333     0.118833333333     0.800000000000     0          
O        O      0.547833333333     0.000000000000     0.900000000000     0          
O        O      0.547833333333     0.214500000000     0.800000000000     0          
O        O      0.333333333333     0.452166666667     0.100000000000     0          
O        O      0.399533333333     0.465733333333     0.150000000000     0          
O        O      0.376633333333     0.521666666667     0.150000000000     0          
T        Si     0.360733333333     0.473000000000     0.150000000000     0          
O        O      0.547833333333     0.333333333333     0.000000000000     0          
O        O      0.600466666667     0.399533333333     0.050000000000     0          
O        O      0.521633333333     0.376633333333     0.050000000000     0          
T        Si     0.554400000000     0.360733333333     0.050000000000     0          
O        O      0.547833333333     0.547833333333     0.100000000000     0          
O        O      0.534266666667     0.600466666667     0.150000000000     0          
O        O      0.478333333333     0.521633333333     0.150000000000     0          
T        Si     0.527000000000     0.554400000000     0.150000000000     0          
O        O      0.333333333333     0.547833333333     0.000000000000     0          
O        O      0.600466666667     0.534266666667     0.050000000000     0          
O        O      0.623366666667     0.478333333333     0.050000000000     0          
T        Si     0.639266666667     0.527000000000     0.050000000000     0          
O        O      0.452166666667     0.333333333333     0.100000000000     0          
O        O      0.399533333333     0.600466666667     0.150000000000     0          
O        O      0.478366666667     0.623366666667     0.150000000000     0          
T        Si     0.445600000000     0.639266666667     0.150000000000     0          
O        O      0.452166666667     0.452166666667     0.000000000000     0          
O        O      0.465733333333     0.399533333333     0.050000000000     0          
O        O      0.521666666667     0.478366666667     0.050000000000     0          
T        Si     0.473000000000     0.445600000000     0.050000000000     0          
T        Si     0.527000000000     0.639266666667     0.150000000000     0          
T        Si     0.554400000000     0.527000000000     0.050000000000     0          
T        Si     0.360733333333     0.554400000000     0.150000000000     0          
T        Si     0.473000000000     0.360733333333     0.050000000000     0          
T        Si     0.445600000000     0.473000000000     0.150000000000     0          
T        Si     0.639266666667     0.445600000000     0.050000000000     0          
O        O      0.333333333333     0.547833333333     0.100000000000     0          
O        O      0.452166666667     0.333333333333     0.000000000000     0          
O        O      0.452166666667     0.452166666667     0.100000000000     0          
O        O      0.333333333333     0.452166666667     0.000000000000     0          
O        O      0.547833333333     0.333333333333     0.100000000000     0          
O        O      0.547833333333     0.547833333333     0.000000000000     0          
O        O      0.333333333333     0.452166666667     0.300000000000     0          
O        O      0.399533333333     0.465733333333     0.350000000000     0          
O        O      0.376633333333     0.521666666667     0.350000000000     0          
T        Si     0.360733333333     0.473000000000     0.350000000000     0          
O        O      0.547833333333     0.333333333333     0.200000000000     0          
O        O      0.600466666667     0.399533333333     0.250000000000     0          
O        O      0.521633333333     0.376633333333     0.250000000000     0          
T        Si     0.554400000000     0.360733333333     0.250000000000     0          
O        O      0.547833333333     0.547833333333     0.300000000000     0          
O        O      0.534266666667     0.600466666667     0.350000000000     0          
O        O      0.478333333333     0.521633333333     0.350000000000     0          
T        Si     0.527000000000     0.554400000000     0.350000000000     0          
O        O      0.333333333333     0.547833333333     0.200000000000     0          
O        O      0.600466666667     0.534266666667     0.250000000000     0          
O        O      0.623366666667     0.478333333333     0.250000000000     0          
T        Si     0.639266666667     0.527000000000     0.250000000000     0          
O        O      0.452166666667     0.333333333333     0.300000000000     0          
O        O      0.399533333333     0.600466666667     0.350000000000     0          
O        O      0.478366666667     0.623366666667     0.350000000000     0          
T        Si     0.445600000000     0.639266666667     0.350000000000     0          
O        O      0.452166666667     0.452166666667     0.200000000000     0          
O        O      0.465733333333     0.399533333333     0.250000000000     0          
O        O      0.521666666667     0.478366666667     0.250000000000     0          
T        Si     0.473000000000     0.445600000000     0.250000000000     0          
T        Si     0.527000000000     0.639266666667     0.350000000000     0          
T        Si     0.554400000000     0.527000000000     0.250000000000     0          
T        Si     0.360733333333     0.554400000000     0.350000000000     0          
T        Si     0.473000000000     0.360733333333     0.250000000000     0          
T        Si     0.445600000000     0.473000000000     0.350000000000     0          
T        Si     0.639266666667     0.445600000000     0.250000000000     0          
O        O      0.333333333333     0.547833333333     0.300000000000     0          
O        O      0.452166666667     0.333333333333     0.200000000000     0          
O        O      0.452166666667     0.452166666667     0.300000000000     0          
O        O      0.333333333333     0.452166666667     0.200000000000     0          
O        O      0.547833333333     0.333333333333     0.300000000000     0          
O        O      0.547833333333     0.547833333333     0.200000000000     0          
O        O      0.333333333333     0.452166666667     0.500000000000     0          
O        O      0.399533333333     0.465733333333     0.550000000000     0          
O        O      0.376633333333     0.521666666667     0.550000000000     0          
T        Si     0.360733333333     0.473000000000     0.550000000000     0          
O        O      0.547833333333     0.333333333333     0.400000000000     0          
O        O      0.600466666667     0.399533333333     0.450000000000     0          
O        O      0.521633333333     0.376633333333     0.450000000000     0          
T        Si     0.554400000000     0.360733333333     0.450000000000     0          
O        O      0.547833333333     0.547833333333     0.500000000000     0          
O        O      0.534266666667     0.600466666667     0.550000000000     0          
O        O      0.478333333333     0.521633333333     0.550000000000     0          
T        Si     0.527000000000     0.554400000000     0.550000000000     0          
O        O      0.333333333333     0.547833333333     0.400000000000     0          
O        O      0.600466666667     0.534266666667     0.450000000000     0          
O        O      0.623366666667     0.478333333333     0.450000000000     0          
T        Si     0.639266666667     0.527000000000     0.450000000000     0          
O        O      0.452166666667     0.333333333333     0.500000000000     0          
O        O      0.399533333333     0.600466666667     0.550000000000     0          
O        O      0.478366666667     0.623366666667     0.550000000000     0          
T        Si     0.445600000000     0.639266666667     0.550000000000     0          
O        O      0.452166666667     0.452166666667     0.400000000000     0          
O        O      0.465733333333     0.399533333333     0.450000000000     0          
O        O      0.521666666667     0.478366666667     0.450000000000     0          
T        Si     0.473000000000     0.445600000000     0.450000000000     0          
T        Si     0.527000000000     0.639266666667     0.550000000000     0          
T        Si     0.554400000000     0.527000000000     0.450000000000     0          
T        Si     0.360733333333     0.554400000000     0.550000000000     0          
T        Si     0.473000000000     0.360733333333     0.450000000000     0          
T        Si     0.445600000000     0.473000000000     0.550000000000     0          
T        Si     0.639266666667     0.445600000000     0.450000000000     0          
O        O      0.333333333333     0.547833333333     0.500000000000     0          
O        O      0.452166666667     0.333333333333     0.400000000000     0          
O        O      0.452166666667     0.452166666667     0.500000000000     0          
O        O      0.333333333333     0.452166666667     0.400000000000     0          
O        O      0.547833333333     0.333333333333     0.500000000000     0          
O        O      0.547833333333     0.547833333333     0.400000000000     0          
O        O      0.333333333333     0.452166666667     0.700000000000     0          
O        O      0.399533333333     0.465733333333     0.750000000000     0          
O        O      0.376633333333     0.521666666667     0.750000000000     0          
T        Si     0.360733333333     0.473000000000     0.750000000000     0          
O        O      0.547833333333     0.333333333333     0.600000000000     0          
O        O      0.600466666667     0.399533333333     0.650000000000     0          
O        O      0.521633333333     0.376633333333     0.650000000000     0          
T        Si     0.554400000000     0.360733333333     0.650000000000     0          
O        O      0.547833333333     0.547833333333     0.700000000000     0          
O        O      0.534266666667     0.600466666667     0.750000000000     0          
O        O      0.478333333333     0.521633333333     0.750000000000     0          
T        Si     0.527000000000     0.554400000000     0.750000000000     0          
O        O      0.333333333333     0.547833333333     0.600000000000     0          
O        O      0.600466666667     0.534266666667     0.650000000000     0          
O        O      0.623366666667     0.478333333333     0.650000000000     0          
T        Si     0.639266666667     0.527000000000     0.650000000000     0          
O        O      0.452166666667     0.333333333333     0.700000000000     0          
O        O      0.399533333333     0.600466666667     0.750000000000     0          
O        O      0.478366666667     0.623366666667     0.750000000000     0          
T        Si     0.445600000000     0.639266666667     0.750000000000     0          
O        O      0.452166666667     0.452166666667     0.600000000000     0          
O        O      0.465733333333     0.399533333333     0.650000000000     0          
O        O      0.521666666667     0.478366666667     0.650000000000     0          
T        Si     0.473000000000     0.445600000000     0.650000000000     0          
T        Si     0.527000000000     0.639266666667     0.750000000000     0          
T        Si     0.554400000000     0.527000000000     0.650000000000     0          
T        Si     0.360733333333     0.554400000000     0.750000000000     0          
T        Si     0.473000000000     0.360733333333     0.650000000000     0          
T        Si     0.445600000000     0.473000000000     0.750000000000     0          
T        Si     0.639266666667     0.445600000000     0.650000000000     0          
O        O      0.333333333333     0.547833333333     0.700000000000     0          
O        O      0.452166666667     0.333333333333     0.600000000000     0          
O        O      0.452166666667     0.452166666667     0.700000000000     0          
O        O      0.333333333333     0.452166666667     0.600000000000     0          
O        O      0.547833333333     0.333333333333     0.700000000000     0          
O        O      0.547833333333     0.547833333333     0.600000000000     0          
O        O      0.333333333333     0.452166666667     0.900000000000     0          
O        O      0.399533333333     0.465733333333     0.950000000000     0          
O        O      0.376633333333     0.521666666667     0.950000000000     0          
T        Si     0.360733333333     0.473000000000     0.950000000000     0          
O        O      0.547833333333     0.333333333333     0.800000000000     0          
O        O      0.600466666667     0.399533333333     0.850000000000     0          
O        O      0.521633333333     0.376633333333     0.850000000000     0          
T        Si     0.554400000000     0.360733333333     0.850000000000     0          
O        O      0.547833333333     0.547833333333     0.900000000000     0          
O        O      0.534266666667     0.600466666667     0.950000000000     0          
O        O      0.478333333333     0.521633333333     0.950000000000     0          
T        Si     0.527000000000     0.554400000000     0.950000000000     0          
O        O      0.333333333333     0.547833333333     0.800000000000     0          
O        O      0.600466666667     0.534266666667     0.850000000000     0          
O        O      0.623366666667     0.478333333333     0.850000000000     0          
T        Si     0.639266666667     0.527000000000     0.850000000000     0          
O        O      0.452166666667     0.333333333333     0.900000000000     0          
O        O      0.399533333333     0.600466666667     0.950000000000     0          
O        O      0.478366666667     0.623366666667     0.950000000000     0          
T        Si     0.445600000000     0.639266666667     0.950000000000     0          
O        O      0.452166666667     0.452166666667     0.800000000000     0          
O        O      0.465733333333     0.399533333333     0.850000000000     0          
O        O      0.521666666667     0.478366666667     0.850000000000     0          
T        Si     0.473000000000     0.445600000000     0.850000000000     0          
T        Si     0.527000000000     0.639266666667     0.950000000000     0          
T        Si     0.554400000000     0.527000000000     0.850000000000     0          
T        Si     0.360733333333     0.554400000000     0.950000000000     0          
T        Si     0.473000000000     0.360733333333     0.850000000000     0          
T        Si     0.445600000000     0.473000000000     0.950000000000     0          
T        Si     0.639266666667     0.445600000000     0.850000000000     0          
O        O      0.333333333333     0.547833333333     0.900000000000     0          
O        O      0.452166666667     0.333333333333     0.800000000000     0          
O        O      0.452166666667     0.452166666667     0.900000000000     0          
O        O      0.333333333333     0.452166666667     0.800000000000     0          
O        O      0.547833333333     0.333333333333     0.900000000000     0          
O        O      0.547833333333     0.547833333333     0.800000000000     0          
O        O      0.333333333333     0.785500000000     0.100000000000     0          
O        O      0.399533333333     0.799066666667     0.150000000000     0          
O        O      0.376633333333     0.855000000000     0.150000000000     0          
T        Si     0.360733333333     0.806333333333     0.150000000000     0          
O        O      0.547833333333     0.666666666667     0.000000000000     0          
O        O      0.600466666667     0.732866666667     0.050000000000     0          
O        O      0.521633333333     0.709966666667     0.050000000000     0          
T        Si     0.554400000000     0.694066666667     0.050000000000     0          
O        O      0.547833333333     0.881166666667     0.100000000000     0          
O        O      0.534266666667     0.933800000000     0.150000000000     0          
O        O      0.478333333333     0.854966666667     0.150000000000     0          
T        Si     0.527000000000     0.887733333333     0.150000000000     0          
O        O      0.333333333333     0.881166666667     0.000000000000     0          
O        O      0.600466666667     0.867600000000     0.050000000000     0          
O        O      0.623366666667     0.811666666667     0.050000000000     0          
T        Si     0.639266666667     0.860333333333     0.050000000000     0          
O        O      0.452166666667     0.666666666667     0.100000000000     0          
O        O      0.399533333333     0.933800000000     0.150000000000     0          
O        O      0.478366666667     0.956700000000     0.150000000000     0          
T        Si     0.445600000000     0.972600000000     0.150000000000     0          
O        O      0.452166666667     0.785500000000     0.000000000000     0          
O        O      0.465733333333     0.732866666667     0.050000000000     0          
O        O      0.521666666667     0.811700000000     0.050000000000     0          
T        Si     0.473000000000     0.778933333333     0.050000000000     0          
T        Si     0.527000000000     0.972600000000     0.150000000000     0          
T        Si     0.554400000000     0.860333333333     0.050000000000     0          
T        Si     0.360733333333     0.887733333333     0.150000000000     0          
T        Si     0.473000000000     0.694066666667     0.050000000000     0          
T        Si     0.445600000000     0.806333333333     0.150000000000     0          
T        Si     0.639266666667     0.778933333333     0.050000000000     0          
O        O      0.333333333333     0.881166666667     0.100000000000     0          
O        O      0.452166666667     0.666666666667     0.000000000000     0          
O        O      0.452166666667     0.785500000000     0.100000000000     0          
O        O      0.333333333333     0.785500000000     0.000000000000     0          
O        O      0.547833333333     0.666666666667     0.100000000000     0          
O        O      0.547833333333     0.881166666667     0.000000000000     0          
O        O      0.333333333333     0.785500000000     0.300000000000     0          
O        O      0.399533333333     0.799066666667     0.350000000000     0          
O        O      0.376633333333     0.855000000000     0.350000000000     0          
T        Si     0.360733333333     0.806333333333     0.350000000000     0          
O        O      0.547833333333     0.666666666667     0.200000000000     0          
O        O      0.600466666667     0.732866666667     0.250000000000     0          
O        O      0.521633333333     0.709966666667     0.250000000000     0          
T        Si     0.554400000000     0.694066666667     0.250000000000     0          
O        O      0.547833333333     0.881166666667     0.300000000000     0          
O        O      0.534266666667     0.933800000000     0.350000000000     0          
O        O      0.478333333333     0.854966666667     0.350000000000     0          
T        Si     0.527000000000     0.887733333333     0.350000000000     0          
O        O      0.333333333333     0.881166666667     0.200000000000     0          
O        O      0.600466666667     0.867600000000     0.250000000000     0          
O        O      0.623366666667     0.811666666667     0.250000000000     0          
T        Si     0.639266666667     0.860333333333     0.250000000000     0          
O        O      0.452166666667     0.666666666667     0.300000000000     0          
O        O      0.399533333333     0.933800000000     0.350000000000     0          
O        O      0.478366666667     0.956700000000     0.350000000000     0          
T        Si     0.445600000000     0.972600000000     0.350000000000     0          
O        O      0.452166666667     0.785500000000     0.200000000000     0          
O        O      0.465733333333     0.732866666667     0.250000000000     0          
O        O      0.521666666667     0.811700000000     0.250000000000     0          
T        Si     0.473000000000     0.778933333333     0.250000000000     0          
T        Si     0.527000000000     0.972600000000     0.350000000000     0          
T        Si     0.554400000000     0.860333333333     0.250000000000     0          
T        Si     0.360733333333     0.887733333333     0.350000000000     0          
T        Si     0.473000000000     0.694066666667     0.250000000000     0          
T        Si     0.445600000000     0.806333333333     0.350000000000     0          
T        Si     0.639266666667     0.778933333333     0.250000000000     0          
O        O      0.333333333333     0.881166666667     0.300000000000     0          
O        O      0.452166666667     0.666666666667     0.200000000000     0          
O        O      0.452166666667     0.785500000000     0.300000000000     0          
O        O      0.333333333333     0.785500000000     0.200000000000     0          
O        O      0.547833333333     0.666666666667     0.300000000000     0          
O        O      0.547833333333     0.881166666667     0.200000000000     0          
O        O      0.333333333333     0.785500000000     0.500000000000     0          
O        O      0.399533333333     0.799066666667     0.550000000000     0          
O        O      0.376633333333     0.855000000000     0.550000000000     0          
T        Si     0.360733333333     0.806333333333     0.550000000000     0          
O        O      0.547833333333     0.666666666667     0.400000000000     0          
O        O      0.600466666667     0.732866666667     0.450000000000     0          
O        O      0.521633333333     0.709966666667     0.450000000000     0          
T        Si     0.554400000000     0.694066666667     0.450000000000     0          
O        O      0.547833333333     0.881166666667     0.500000000000     0          
O        O      0.534266666667     0.933800000000     0.550000000000     0          
O        O      0.478333333333     0.854966666667     0.550000000000     0          
T        Si     0.527000000000     0.887733333333     0.550000000000     0          
O        O      0.333333333333     0.881166666667     0.400000000000     0          
O        O      0.600466666667     0.867600000000     0.450000000000     0          
O        O      0.623366666667     0.811666666667     0.450000000000     0          
T        Si     0.639266666667     0.860333333333     0.450000000000     0          
O        O      0.452166666667     0.666666666667     0.500000000000     0          
O        O      0.399533333333     0.933800000000     0.550000000000     0          
O        O      0.478366666667     0.956700000000     0.550000000000     0          
T        Si     0.445600000000     0.972600000000     0.550000000000     0          
O        O      0.452166666667     0.785500000000     0.400000000000     0          
O        O      0.465733333333     0.732866666667     0.450000000000     0          
O        O      0.521666666667     0.811700000000     0.450000000000     0          
T        Si     0.473000000000     0.778933333333     0.450000000000     0          
T        Si     0.527000000000     0.972600000000     0.550000000000     0          
T        Si     0.554400000000     0.860333333333     0.450000000000     0          
T        Si     0.360733333333     0.887733333333     0.550000000000     0          
T        Si     0.473000000000     0.694066666667     0.450000000000     0          
T        Si     0.445600000000     0.806333333333     0.550000000000     0          
T        Si     0.639266666667     0.778933333333     0.450000000000     0          
O        O      0.333333333333     0.881166666667     0.500000000000     0          
O        O      0.452166666667     0.666666666667     0.400000000000     0          
O        O      0.452166666667     0.785500000000     0.500000000000     0          
O        O      0.333333333333     0.785500000000     0.400000000000     0          
O        O      0.547833333333     0.666666666667     0.500000000000     0          
O        O      0.547833333333     0.881166666667     0.400000000000     0          
O        O      0.333333333333     0.785500000000     0.700000000000     0          
O        O      0.399533333333     0.799066666667     0.750000000000     0          
O        O      0.376633333333     0.855000000000     0.750000000000     0          
T        Si     0.360733333333     0.806333333333     0.750000000000     0          
O        O      0.547833333333     0.666666666667     0.600000000000     0          
O        O      0.600466666667     0.732866666667     0.650000000000     0          
O        O      0.521633333333     0.709966666667     0.650000000000     0          
T        Si     0.554400000000     0.694066666667     0.650000000000     0          
O        O      0.547833333333     0.881166666667     0.700000000000     0          
O        O      0.534266666667     0.933800000000     0.750000000000     0          
O        O      0.478333333333     0.854966666667     0.750000000000     0          
T        Si     0.527000000000     0.887733333333     0.750000000000     0          
O        O      0.333333333333     0.881166666667     0.600000000000     0          
O        O      0.600466666667     0.867600000000     0.650000000000     0          
O        O      0.623366666667     0.811666666667     0.650000000000     0          
T        Si     0.639266666667     0.860333333333     0.650000000000     0          
O        O      0.452166666667     0.666666666667     0.700000000000     0          
O        O      0.399533333333     0.933800000000     0.750000000000     0          
O        O      0.478366666667     0.956700000000     0.750000000000     0          
T        Si     0.445600000000     0.972600000000     0.750000000000     0          
O        O      0.452166666667     0.785500000000     0.600000000000     0          
O        O      0.465733333333     0.732866666667     0.650000000000     0          
O        O      0.521666666667     0.811700000000     0.650000000000     0          
T        Si     0.473000000000     0.778933333333     0.650000000000     0          
T        Si     0.527000000000     0.972600000000     0.750000000000     0          
T        Si     0.554400000000     0.860333333333     0.650000000000     0          
T        Si     0.360733333333     0.887733333333     0.750000000000     0          
T        Si     0.473000000000     0.694066666667     0.650000000000     0          
T        Si     0.445600000000     0.806333333333     0.750000000000     0          
T        Si     0.639266666667     0.778933333333     0.650000000000     0          
O        O      0.333333333333     0.881166666667     0.700000000000     0          
O        O      0.452166666667     0.666666666667     0.600000000000     0          
O        O      0.452166666667     0.785500000000     0.700000000000     0          
O        O      0.333333333333     0.785500000000     0.600000000000     0          
O        O      0.547833333333     0.666666666667     0.700000000000     0          
O        O      0.547833333333     0.881166666667     0.600000000000     0          
O        O      0.333333333333     0.785500000000     0.900000000000     0          
O        O      0.399533333333     0.799066666667     0.950000000000     0          
O        O      0.376633333333     0.855000000000     0.950000000000     0          
T        Si     0.360733333333     0.806333333333     0.950000000000     0          
O        O      0.547833333333     0.666666666667     0.800000000000     0          
O        O      0.600466666667     0.732866666667     0.850000000000     0          
O        O      0.521633333333     0.709966666667     0.850000000000     0          
T        Si     0.554400000000     0.694066666667     0.850000000000     0          
O        O      0.547833333333     0.881166666667     0.900000000000     0          
O        O      0.534266666667     0.933800000000     0.950000000000     0          
O        O      0.478333333333     0.854966666667     0.950000000000     0          
T        Si     0.527000000000     0.887733333333     0.950000000000     0          
O        O      0.333333333333     0.881166666667     0.800000000000     0          
O        O      0.600466666667     0.867600000000     0.850000000000     0          
O        O      0.623366666667     0.811666666667     0.850000000000     0          
T        Si     0.639266666667     0.860333333333     0.850000000000     0          
O        O      0.452166666667     0.666666666667     0.900000000000     0          
O        O      0.399533333333     0.933800000000     0.950000000000     0          
O        O      0.478366666667     0.956700000000     0.950000000000     0          
T        Si     0.445600000000     0.972600000000     0.950000000000     0          
O        O      0.452166666667     0.785500000000     0.800000000000     0          
O        O      0.465733333333     0.732866666667     0.850000000000     0          
O        O      0.521666666667     0.811700000000     0.850000000000     0          
T        Si     0.473000000000     0.778933333333     0.850000000000     0          
T        Si     0.527000000000     0.972600000000     0.950000000000     0          
T        Si     0.554400000000     0.860333333333     0.850000000000     0          
T        Si     0.360733333333     0.887733333333     0.950000000000     0          
T        Si     0.473000000000     0.694066666667     0.850000000000     0          
T        Si     0.445600000000     0.806333333333     0.950000000000     0          
T        Si     0.639266666667     0.778933333333     0.850000000000     0          
O        O      0.333333333333     0.881166666667     0.900000000000     0          
O        O      0.452166666667     0.666666666667     0.800000000000     0          
O        O      0.452166666667     0.785500000000     0.900000000000     0          
O        O      0.333333333333     0.785500000000     0.800000000000     0          
O        O      0.547833333333     0.666666666667     0.900000000000     0          
O        O      0.547833333333     0.881166666667     0.800000000000     0          
O        O      0.666666666667     0.118833333333     0.100000000000     0          
O        O      0.732866666667     0.132400000000     0.150000000000     0          
O        O      0.709966666667     0.188333333333     0.150000000000     0          
T        Si     0.694066666667     0.139666666667     0.150000000000     0          
O        O      0.881166666667     0.000000000000     0.000000000000     0          
O        O      0.933800000000     0.066200000000     0.050000000000     0          
O        O      0.854966666667     0.043300000000     0.050000000000     0          
T        Si     0.887733333333     0.027400000000     0.050000000000     0          
O        O      0.881166666667     0.214500000000     0.100000000000     0          
O        O      0.867600000000     0.267133333333     0.150000000000     0          
O        O      0.811666666667     0.188300000000     0.150000000000     0          
T        Si     0.860333333333     0.221066666667     0.150000000000     0          
O        O      0.666666666667     0.214500000000     0.000000000000     0          
O        O      0.933800000000     0.200933333333     0.050000000000     0          
O        O      0.956700000000     0.145000000000     0.050000000000     0          
T        Si     0.972600000000     0.193666666667     0.050000000000     0          
O        O      0.785500000000     0.000000000000     0.100000000000     0          
O        O      0.732866666667     0.267133333333     0.150000000000     0          
O        O      0.811700000000     0.290033333333     0.150000000000     0          
T        Si     0.778933333333     0.305933333333     0.150000000000     0          
O        O      0.785500000000     0.118833333333     0.000000000000     0          
O        O      0.799066666667     0.066200000000     0.050000000000     0          
O        O      0.855000000000     0.145033333333     0.050000000000     0          
T        Si     0.806333333333     0.112266666667     0.050000000000     0          
T        Si     0.860333333333     0.305933333333     0.150000000000     0          
T        Si     0.887733333333     0.193666666667     0.050000000000     0          
T        Si     0.694066666667     0.221066666667     0.150000000000     0          
T        Si     0.806333333333     0.027400000000     0.050000000000     0          
T        Si     0.778933333333     0.139666666667     0.150000000000     0          
T        Si     0.972600000000     0.112266666667     0.050000000000     0          
O        O      0.666666666667     0.214500000000     0.100000000000     0          
O        O      0.785500000000     0.000000000000     0.000000000000     0          
O        O      0.785500000000     0.118833333333     0.100000000000     0          
O        O      0.666666666667     0.118833333333     0.000000000000     0          
O        O      0.881166666667     0.000000000000     0.100000000000     0          
O        O      0.881166666667     0.214500000000     0.000000000000     0          
O        O      0.666666666667     0.118833333333     0.300000000000     0          
O        O      0.732866666667     0.132400000000     0.350000000000     0          
O        O      0.709966666667     0.188333333333     0.350000000000     0          
T        Si     0.694066666667     0.139666666667     0.350000000000     0          
O        O      0.881166666667     0.000000000000     0.200000000000     0          
O        O      0.933800000000     0.066200000000     0.250000000000     0          
O        O      0.854966666667     0.043300000000     0.250000000000     0          
T        Si     0.887733333333     0.027400000000     0.250000000000     0          
O        O      0.881166666667     0.214500000000     0.300000000000     0          
O        O      0.867600000000     0.267133333333     0.350000000000     0          
O        O      0.811666666667     0.188300000000     0.350000000000     0          
T        Si     0.860333333333     0.221066666667     0.350000000000     0          
O        O      0.666666666667     0.214500000000     0.200000000000     0          
O        O      0.933800000000     0.200933333333     0.250000000000     0          
O        O      0.956700000000     0.145000000000     0.250000000000     0          
T        Si     0.972600000000     0.193666666667     0.250000000000     0          
O        O      0.785500000000     0.000000000000     0.300000000000     0          
O        O      0.732866666667     0.267133333333     0.350000000000     0          
O        O      0.811700000000     0.290033333333     0.350000000000     0          
T        Si     0.778933333333     0.305933333333     0.350000000000     0          
O        O      0.785500000000     0.118833333333     0.200000000000     0          
O        O      0.799066666667     0.066200000000     0.250000000000     0          
O        O      0.855000000000     0.145033333333     0.250000000000     0          
T        Si     0.806333333333     0.112266666667     0.250000000000     0          
T        Si     0.860333333333     0.305933333333     0.350000000000     0          
T        Si     0.887733333333     0.193666666667     0.250000000000     0          
T        Si     0.694066666667     0.221066666667     0.350000000000     0          
T        Si     0.806333333333     0.027400000000     0.250000000000     0          
T        Si     0.778933333333     0.139666666667     0.350000000000     0          
T        Si     0.972600000000     0.112266666667     0.250000000000     0          
O        O      0.666666666667     0.214500000000     0.300000000000     0          
O        O      0.785500000000     0.000000000000     0.200000000000     0          
O        O      0.785500000000     0.118833333333     0.300000000000     0          
O        O      0.666666666667     0.118833333333     0.200000000000     0          
O        O      0.881166666667     0.000000000000     0.300000000000     0          
O        O      0.881166666667     0.214500000000     0.200000000000     0          
O        O      0.666666666667     0.118833333333     0.500000000000     0          
O        O      0.732866666667     0.132400000000     0.550000000000     0          
O        O      0.709966666667     0.188333333333     0.550000000000     0          
T        Si     0.694066666667     0.139666666667     0.550000000000     0          
O        O      0.881166666667     0.000000000000     0.400000000000     0          
O        O      0.933800000000     0.066200000000     0.450000000000     0          
O        O      0.854966666667     0.043300000000     0.450000000000     0          
T        Si     0.887733333333     0.027400000000     0.450000000000     0          
O        O      0.881166666667     0.214500000000     0.500000000000     0          
O        O      0.867600000000     0.267133333333     0.550000000000     0          
O        O      0.811666666667     0.188300000000     0.550000000000     0          
T        Si     0.860333333333     0.221066666667     0.550000000000     0          
O        O      0.666666666667     0.214500000000     0.400000000000     0          
O        O      0.933800000000     0.200933333333     0.450000000000     0          
O        O      0.956700000000     0.145000000000     0.450000000000     0          
T        Si     0.972600000000     0.193666666667     0.450000000000     0          
O        O      0.785500000000     0.000000000000     0.500000000000     0          
O        O      0.732866666667     0.267133333333     0.550000000000     0          
O        O      0.811700000000     0.290033333333     0.550000000000     0          
T        Si     0.778933333333     0.305933333333     0.550000000000     0          
O        O      0.785500000000     0.118833333333     0.400000000000     0          
O        O      0.799066666667     0.066200000000     0.450000000000     0          
O        O      0.855000000000     0.145033333333     0.450000000000     0          
T        Si     0.806333333333     0.112266666667     0.450000000000     0          
T        Si     0.860333333333     0.305933333333     0.550000000000     0          
T        Si     0.887733333333     0.193666666667     0.450000000000     0          
T        Si     0.694066666667     0.221066666667     0.550000000000     0          
T        Si     0.806333333333     0.027400000000     0.450000000000     0          
T        Si     0.778933333333     0.139666666667     0.550000000000     0          
T        Si     0.972600000000     0.112266666667     0.450000000000     0          
O        O      0.666666666667     0.214500000000     0.500000000000     0          
O        O      0.785500000000     0.000000000000     0.400000000000     0          
O        O      0.785500000000     0.118833333333     0.500000000000     0          
O        O      0.666666666667     0.118833333333     0.400000000000     0          
O        O      0.881166666667     0.000000000000     0.500000000000     0          
O        O      0.881166666667     0.214500000000     0.400000000000     0          
O        O      0.666666666667     0.118833333333     0.700000000000     0          
O        O      0.732866666667     0.132400000000     0.750000000000     0          
O        O      0.709966666667     0.188333333333     0.750000000000     0          
T        Si     0.694066666667     0.139666666667     0.750000000000     0          
O        O      0.881166666667     0.000000000000     0.600000000000     0          
O        O      0.933800000000     0.066200000000     0.650000000000     0          
O        O      0.854966666667     0.043300000000     0.650000000000     0          
T        Si     0.887733333333     0.027400000000     0.650000000000     0          
O        O      0.881166666667     0.214500000000     0.700000000000     0          
O        O      0.867600000000     0.267133333333     0.750000000000     0          
O        O      0.811666666667     0.188300000000     0.750000000000     0          
T        Si     0.860333333333     0.221066666667     0.750000000000     0          
O        O      0.666666666667     0.214500000000     0.600000000000     0          
O        O      0.933800000000     0.200933333333     0.650000000000     0          
O        O      0.956700000000     0.145000000000     0.650000000000     0          
T        Si     0.972600000000     0.193666666667     0.650000000000     0          
O        O      0.785500000000     0.000000000000     0.700000000000     0          
O        O      0.732866666667     0.267133333333     0.750000000000     0          
O        O      0.811700000000     0.290033333333     0.750000000000     0          
T        Si     0.778933333333     0.305933333333     0.750000000000     0          
O        O      0.785500000000     0.118833333333     0.600000000000     0          
O        O      0.799066666667     0.066200000000     0.650000000000     0          
O        O      0.855000000000     0.145033333333     0.650000000000     0          
T        Si     0.806333333333     0.112266666667     0.650000000000     0          
T        Si     0.860333333333     0.305933333333     0.750000000000     0          
T        Si     0.887733333333     0.193666666667     0.650000000000     0          
T        Si     0.694066666667     0.221066666667     0.750000000000     0          
T        Si     0.806333333333     0.027400000000     0.650000000000     0          
T        Si     0.778933333333     0.139666666667     0.750000000000     0          
T        Si     0.972600000000     0.112266666667     0.650000000000     0          
O        O      0.666666666667     0.214500000000     0.700000000000     0          
O        O      0.785500000000     0.000000000000     0.600000000000     0          
O        O      0.785500000000     0.118833333333     0.700000000000     0          
O        O      0.666666666667     0.118833333333     0.600000000000     0          
O        O      0.881166666667     0.000000000000     0.700000000000     0          
O        O      0.881166666667     0.214500000000     0.600000000000     0          
O        O      0.666666666667     0.118833333333     0.900000000000     0          
O        O      0.732866666667     0.132400000000     0.950000000000     0          
O        O      0.709966666667     0.188333333333     0.950000000000     0          
T        Si     0.694066666667     0.139666666667     0.950000000000     0          
O        O      0.881166666667     0.000000000000     0.800000000000     0          
O        O      0.933800000000     0.066200000000     0.850000000000     0          
O        O      0.854966666667     0.043300000000     0.850000000000     0          
T        Si     0.887733333333     0.027400000000     0.850000000000     0          
O        O      0.881166666667     0.214500000000     0.900000000000     0          
O        O      0.867600000000     0.267133333333     0.950000000000     0          
O        O      0.811666666667     0.188300000000     0.950000000000     0          
T        Si     0.860333333333     0.221066666667     0.950000000000     0          
O        O      0.666666666667     0.214500000000     0.800000000000     0          
O        O      0.933800000000     0.200933333333     0.850000000000     0          
O        O      0.956700000000     0.145000000000     0.850000000000     0          
T        Si     0.972600000000     0.193666666667     0.850000000000     0          
O        O      0.785500000000     0.000000000000     0.900000000000     0          
O        O      0.732866666667     0.267133333333     0.950000000000     0          
O        O      0.811700000000     0.290033333333     0.950000000000     0          
T        Si     0.778933333333     0.305933333333     0.950000000000     0          
O        O      0.785500000000     0.118833333333     0.800000000000     0          
O        O      0.799066666667     0.066200000000     0.850000000000     0          
O        O      0.855000000000     0.145033333333     0.850000000000     0          
T        Si     0.806333333333     0.112266666667     0.850000000000     0          
T        Si     0.860333333333     0.305933333333     0.950000000000     0          
T        Si     0.887733333333     0.193666666667     0.850000000000     0          
T        Si     0.694066666667     0.221066666667     0.950000000000     0          
T        Si     0.806333333333     0.027400000000     0.850000000000     0          
T        Si     0.778933333333     0.139666666667     0.950000000000     0          
T        Si     0.972600000000     0.112266666667     0.850000000000     0          
O        O      0.666666666667     0.214500000000     0.900000000000     0          
O        O      0.785500000000     0.000000000000     0.800000000000     0          
O        O      0.785500000000     0.118833333333     0.900000000000     0          
O        O      0.666666666667     0.118833333333     0.800000000000     0          
O        O      0.881166666667     0.000000000000     0.900000000000     0          
O        O      0.881166666667     0.214500000000     0.800000000000     0          
O        O      0.666666666667     0.452166666667     0.100000000000     0          
O        O      0.732866666667     0.465733333333     0.150000000000     0          
O        O      0.709966666667     0.521666666667     0.150000000000     0          
T        Si     0.694066666667     0.473000000000     0.150000000000     0          
O        O      0.881166666667     0.333333333333     0.000000000000     0          
O        O      0.933800000000     0.399533333333     0.050000000000     0          
O        O      0.854966666667     0.376633333333     0.050000000000     0          
T        Si     0.887733333333     0.360733333333     0.050000000000     0          
O        O      0.881166666667     0.547833333333     0.100000000000     0          
O        O      0.867600000000     0.600466666667     0.150000000000     0          
O        O      0.811666666667     0.521633333333     0.150000000000     0          
T        Si     0.860333333333     0.554400000000     0.150000000000     0          
O        O      0.666666666667     0.547833333333     0.000000000000     0          
O        O      0.933800000000     0.534266666667     0.050000000000     0          
O        O      0.956700000000     0.478333333333     0.050000000000     0          
T        Si     0.972600000000     0.527000000000     0.050000000000     0          
O        O      0.785500000000     0.333333333333     0.100000000000     0          
O        O      0.732866666667     0.600466666667     0.150000000000     0          
O        O      0.811700000000     0.623366666667     0.150000000000     0          
T        Si     0.778933333333     0.639266666667     0.150000000000     0          
O        O      0.785500000000     0.452166666667     0.000000000000     0          
O        O      0.799066666667     0.399533333333     0.050000000000     0          
O        O      0.855000000000     0.478366666667     0.050000000000     0          
T        Si     0.806333333333     0.445600000000     0.050000000000     0          
T        Si     0.860333333333     0.639266666667     0.150000000000     0          
T        Si     0.887733333333     0.527000000000     0.050000000000     0          
T        Si     0.694066666667     0.554400000000     0.150000000000     0          
T        Si     0.806333333333     0.360733333333     0.050000000000     0          
T        Si     0.778933333333     0.473000000000     0.150000000000     0          
T        Si     0.972600000000     0.445600000000     0.050000000000     0          
O        O      0.666666666667     0.547833333333     0.100000000000     0          
O        O      0.785500000000     0.333333333333     0.000000000000     0          
O        O      0.785500000000     0.452166666667     0.100000000000     0          
O        O      0.666666666667     0.452166666667     0.000000000000     0          
O        O      0.881166666667     0.333333333333     0.100000000000     0          
O        O      0.881166666667     0.547833333333     0.000000000000     0          
O        O      0.666666666667     0.452166666667     0.300000000000     0          
O        O      0.732866666667     0.465733333333     0.350000000000     0          
O        O      0.709966666667     0.521666666667     0.350000000000     0          
T        Si     0.694066666667     0.473000000000     0.350000000000     0          
O        O      0.881166666667     0.333333333333     0.200000000000     0          
O        O      0.933800000000     0.399533333333     0.250000000000     0          
O        O      0.854966666667     0.376633333333     0.250000000000     0          
T        Si     0.887733333333     0.360733333333     0.250000000000     0          
O        O      0.881166666667     0.547833333333     0.300000000000     0          
O        O      0.867600000000     0.600466666667     0.350000000000     0          
O        O      0.811666666667     0.521633333333     0.350000000000     0          
T        Si     0.860333333333     0.554400000000     0.350000000000     0          
O        O      0.666666666667     0.547833333333     0.200000000000     0          
O        O      0.933800000000     0.534266666667     0.250000000000     0          
O        O      0.956700000000     0.478333333333     0.250000000000     0          
T        Si     0.972600000000     0.527000000000     0.250000000000     0          
O        O      0.785500000000     0.333333333333     0.300000000000     0          
O        O      0.732866666667     0.600466666667     0.350000000000     0          
O        O      0.811700000000     0.623366666667     0.350000000000     0          
T        Si     0.778933333333     0.639266666667     0.350000000000     0          
O        O      0.785500000000     0.452166666667     0.200000000000     0          
O        O      0.799066666667     0.399533333333     0.250000000000     0          
O        O      0.855000000000     0.478366666667     0.250000000000     0          
T        Si     0.806333333333     0.445600000000     0.250000000000     0          
T        Si     0.860333333333     0.639266666667     0.350000000000     0          
T        Si     0.887733333333     0.527000000000     0.250000000000     0          
T        Si     0.694066666667     0.554400000000     0.350000000000     0          
T        Si     0.806333333333     0.360733333333     0.250000000000     0          
T        Si     0.778933333333     0.473000000000     0.350000000000     0          
T        Si     0.972600000000     0.445600000000     0.250000000000     0          
O        O      0.666666666667     0.547833333333     0.300000000000     0          
O        O      0.785500000000     0.333333333333     0.200000000000     0          
O        O      0.785500000000     0.452166666667     0.300000000000     0          
O        O      0.666666666667     0.452166666667     0.200000000000     0          
O        O      0.881166666667     0.333333333333     0.300000000000     0          
O        O      0.881166666667     0.547833333333     0.200000000000     0          
O        O      0.666666666667     0.452166666667     0.500000000000     0          
O        O      0.732866666667     0.465733333333     0.550000000000     0          
O        O      0.709966666667     0.521666666667     0.550000000000     0          
T        Si     0.694066666667     0.473000000000     0.550000000000     0          
O        O      0.881166666667     0.333333333333     0.400000000000     0          
O        O      0.933800000000     0.399533333333     0.450000000000     0          
O        O      0.854966666667     0.376633333333     0.450000000000     0          
T        Si     0.887733333333     0.360733333333     0.450000000000     0          
O        O      0.881166666667     0.547833333333     0.500000000000     0          
O        O      0.867600000000     0.600466666667     0.550000000000     0          
O        O      0.811666666667     0.521633333333     0.550000000000     0          
T        Si     0.860333333333     0.554400000000     0.550000000000     0          
O        O      0.666666666667     0.547833333333     0.400000000000     0          
O        O      0.933800000000     0.534266666667     0.450000000000     0          
O        O      0.956700000000     0.478333333333     0.450000000000     0          
T        Si     0.972600000000     0.527000000000     0.450000000000     0          
O        O      0.785500000000     0.333333333333     0.500000000000     0          
O        O      0.732866666667     0.600466666667     0.550000000000     0          
O        O      0.811700000000     0.623366666667     0.550000000000     0          
T        Si     0.778933333333     0.639266666667     0.550000000000     0          
O        O      0.785500000000     0.452166666667     0.400000000000     0          
O        O      0.799066666667     0.399533333333     0.450000000000     0          
O        O      0.855000000000     0.478366666667     0.450000000000     0          
T        Si     0.806333333333     0.445600000000     0.450000000000     0          
T        Si     0.860333333333     0.639266666667     0.550000000000     0          
T        Si     0.887733333333     0.527000000000     0.450000000000     0          
T        Si     0.694066666667     0.554400000000     0.550000000000     0          
T        Si     0.806333333333     0.360733333333     0.450000000000     0          
T        Si     0.778933333333     0.473000000000     0.550000000000     0          
T        Si     0.972600000000     0.445600000000     0.450000000000     0          
O        O      0.666666666667     0.547833333333     0.500000000000     0          
O        O      0.785500000000     0.333333333333     0.400000000000     0          
O        O      0.785500000000     0.452166666667     0.500000000000     0          
O        O      0.666666666667     0.452166666667     0.400000000000     0          
O        O      0.881166666667     0.333333333333     0.500000000000     0          
O        O      0.881166666667     0.547833333333     0.400000000000     0          
O        O      0.666666666667     0.452166666667     0.700000000000     0          
O        O      0.732866666667     0.465733333333     0.750000000000     0          
O        O      0.709966666667     0.521666666667     0.750000000000     0          
T        Si     0.694066666667     0.473000000000     0.750000000000     0          
O        O      0.881166666667     0.333333333333     0.600000000000     0          
O        O      0.933800000000     0.399533333333     0.650000000000     0          
O        O      0.854966666667     0.376633333333     0.650000000000     0          
T        Si     0.887733333333     0.360733333333     0.650000000000     0          
O        O      0.881166666667     0.547833333333     0.700000000000     0          
O        O      0.867600000000     0.600466666667     0.750000000000     0          
O        O      0.811666666667     0.521633333333     0.750000000000     0          
T        Si     0.860333333333     0.554400000000     0.750000000000     0          
O        O      0.666666666667     0.547833333333     0.600000000000     0          
O        O      0.933800000000     0.534266666667     0.650000000000     0          
O        O      0.956700000000     0.478333333333     0.650000000000     0          
T        Si     0.972600000000     0.527000000000     0.650000000000     0          
O        O      0.785500000000     0.333333333333     0.700000000000     0          
O        O      0.732866666667     0.600466666667     0.750000000000     0          
O        O      0.811700000000     0.623366666667     0.750000000000     0          
T        Si     0.778933333333     0.639266666667     0.750000000000     0          
O        O      0.785500000000     0.452166666667     0.600000000000     0          
O        O      0.799066666667     0.399533333333     0.650000000000     0          
O        O      0.855000000000     0.478366666667     0.650000000000     0          
T        Si     0.806333333333     0.445600000000     0.650000000000     0          
T        Si     0.860333333333     0.639266666667     0.750000000000     0          
T        Si     0.887733333333     0.527000000000     0.650000000000     0          
T        Si     0.694066666667     0.554400000000     0.750000000000     0          
T        Si     0.806333333333     0.360733333333     0.650000000000     0          
T        Si     0.778933333333     0.473000000000     0.750000000000     0          
T        Si     0.972600000000     0.445600000000     0.650000000000     0          
O        O      0.666666666667     0.547833333333     0.700000000000     0          
O        O      0.785500000000     0.333333333333     0.600000000000     0          
O        O      0.785500000000     0.452166666667     0.700000000000     0          
O        O      0.666666666667     0.452166666667     0.600000000000     0          
O        O      0.881166666667     0.333333333333     0.700000000000     0          
O        O      0.881166666667     0.547833333333     0.600000000000     0          
O        O      0.666666666667     0.452166666667     0.900000000000     0          
O        O      0.732866666667     0.465733333333     0.950000000000     0          
O        O      0.709966666667     0.521666666667     0.950000000000     0          
T        Si     0.694066666667     0.473000000000     0.950000000000     0          
O        O      0.881166666667     0.333333333333     0.800000000000     0          
O        O      0.933800000000     0.399533333333     0.850000000000     0          
O        O      0.854966666667     0.376633333333     0.850000000000     0          
T        Si     0.887733333333     0.360733333333     0.850000000000     0          
O        O      0.881166666667     0.547833333333     0.900000000000     0          
O        O      0.867600000000     0.600466666667     0.950000000000     0          
O        O      0.811666666667     0.521633333333     0.950000000000     0          
T        Si     0.860333333333     0.554400000000     0.950000000000     0          
O        O      0.666666666667     0.547833333333     0.800000000000     0          
O        O      0.933800000000     0.534266666667     0.850000000000     0          
O        O      0.956700000000     0.478333333333     0.850000000000     0          
T        Si     0.972600000000     0.527000000000     0.850000000000     0          
O        O      0.785500000000     0.333333333333     0.900000000000     0          
O        O      0.732866666667     0.600466666667     0.950000000000     0          
O        O      0.811700000000     0.623366666667     0.950000000000     0          
T        Si     0.778933333333     0.639266666667     0.950000000000     0          
O        O      0.785500000000     0.452166666667     0.800000000000     0          
O        O      0.799066666667     0.399533333333     0.850000000000     0          
O        O      0.855000000000     0.478366666667     0.850000000000     0          
T        Si     0.806333333333     0.445600000000     0.850000000000     0          
T        Si     0.860333333333     0.639266666667     0.950000000000     0          
T        Si     0.887733333333     0.527000000000     0.850000000000     0          
T        Si     0.694066666667     0.554400000000     0.950000000000     0          
T        Si     0.806333333333     0.360733333333     0.850000000000     0          
T        Si     0.778933333333     0.473000000000     0.950000000000     0          
T        Si     0.972600000000     0.445600000000     0.850000000000     0          
O        O      0.666666666667     0.547833333333     0.900000000000     0          
O        O      0.785500000000     0.333333333333     0.800000000000     0          
O        O      0.785500000000     0.452166666667     0.900000000000     0          
O        O      0.666666666667     0.452166666667     0.800000000000     0          
O        O      0.881166666667     0.333333333333     0.900000000000     0          
O        O      0.881166666667     0.547833333333     0.800000000000     0          
O        O      0.666666666667     0.785500000000     0.100000000000     0          
O        O      0.732866666667     0.799066666667     0.150000000000     0          
O        O      0.709966666667     0.855000000000     0.150000000000     0          
T        Si     0.694066666667     0.806333333333     0.150000000000     0          
O        O      0.881166666667     0.666666666667     0.000000000000     0          
O        O      0.933800000000     0.732866666667     0.050000000000     0          
O        O      0.854966666667     0.709966666667     0.050000000000     0          
T        Si     0.887733333333     0.694066666667     0.050000000000     0          
O        O      0.881166666667     0.881166666667     0.100000000000     0          
O        O      0.867600000000     0.933800000000     0.150000000000     0          
O        O      0.811666666667     0.854966666667     0.150000000000     0          
T        Si     0.860333333333     0.887733333333     0.150000000000     0          
O        O      0.666666666667     0.881166666667     0.000000000000     0          
O        O      0.933800000000     0.867600000000     0.050000000000     0          
O        O      0.956700000000     0.811666666667     0.050000000000     0          
T        Si     0.972600000000     0.860333333333     0.050000000000     0          
O        O      0.785500000000     0.666666666667     0.100000000000     0          
O        O      0.732866666667     0.933800000000     0.150000000000     0          
O        O      0.811700000000     0.956700000000     0.150000000000     0          
T        Si     0.778933333333     0.972600000000     0.150000000000     0          
O        O      0.785500000000     0.785500000000     0.000000000000     0          
O        O      0.799066666667     0.732866666667     0.050000000000     0          
O        O      0.855000000000     0.811700000000     0.050000000000     0          
T        Si     0.806333333333     0.778933333333     0.050000000000     0          
T        Si     0.860333333333     0.972600000000     0.150000000000     0          
T        Si     0.887733333333     0.860333333333     0.050000000000     0          
T        Si     0.694066666667     0.887733333333     0.150000000000     0          
T        Si     0.806333333333     0.694066666667     0.050000000000     0          
T        Si     0.778933333333     0.806333333333     0.150000000000     0          
T        Si     0.972600000000     0.778933333333     0.050000000000     0          
O        O      0.666666666667     0.881166666667     0.100000000000     0          
O        O      0.785500000000     0.666666666667     0.000000000000     0          
O        O      0.785500000000     0.785500000000     0.100000000000     0          
O        O      0.666666666667     0.785500000000     0.000000000000     0          
O        O      0.881166666667     0.666666666667     0.100000000000     0          
O        O      0.881166666667     0.881166666667     0.000000000000     0          
O        O      0.666666666667     0.785500000000     0.300000000000     0          
O        O      0.732866666667     0.799066666667     0.350000000000     0          
O        O      0.709966666667     0.855000000000     0.350000000000     0          
T        Si     0.694066666667     0.806333333333     0.350000000000     0          
O        O      0.881166666667     0.666666666667     0.200000000000     0          
O        O      0.933800000000     0.732866666667     0.250000000000     0          
O        O      0.854966666667     0.709966666667     0.250000000000     0          
T        Si     0.887733333333     0.694066666667     0.250000000000     0          
O        O      0.881166666667     0.881166666667     0.300000000000     0          
O        O      0.867600000000     0.933800000000     0.350000000000     0          
O        O      0.811666666667     0.854966666667     0.350000000000     0          
T        Si     0.860333333333     0.887733333333     0.350000000000     0          
O        O      0.666666666667     0.881166666667     0.200000000000     0          
O        O      0.933800000000     0.867600000000     0.250000000000     0          
O        O      0.956700000000     0.811666666667     0.250000000000     0          
T        Si     0.972600000000     0.860333333333     0.250000000000     0          
O        O      0.785500000000     0.666666666667     0.300000000000     0          
O        O      0.732866666667     0.933800000000     0.350000000000     0          
O        O      0.811700000000     0.956700000000     0.350000000000     0          
T        Si     0.778933333333     0.972600000000     0.350000000000     0          
O        O      0.785500000000     0.785500000000     0.200000000000     0          
O        O      0.799066666667     0.732866666667     0.250000000000     0          
O        O      0.855000000000     0.811700000000     0.250000000000     0          
T        Si     0.806333333333     0.778933333333     0.250000000000     0          
T        Si     0.860333333333     0.972600000000     0.350000000000     0          
T        Si     0.887733333333     0.860333333333     0.250000000000     0          
T        Si     0.694066666667     0.887733333333     0.350000000000     0          
T        Si     0.806333333333     0.694066666667     0.250000000000     0          
T        Si     0.778933333333     0.806333333333     0.350000000000     0          
T        Si     0.972600000000     0.778933333333     0.250000000000     0          
O        O      0.666666666667     0.881166666667     0.300000000000     0          
O        O      0.785500000000     0.666666666667     0.200000000000     0          
O        O      0.785500000000     0.785500000000     0.300000000000     0          
O        O      0.666666666667     0.785500000000     0.200000000000     0          
O        O      0.881166666667     0.666666666667     0.300000000000     0          
O        O      0.881166666667     0.881166666667     0.200000000000     0          
O        O      0.666666666667     0.785500000000     0.500000000000     0          
O        O      0.732866666667     0.799066666667     0.550000000000     0          
O        O      0.709966666667     0.855000000000     0.550000000000     0          
T        Si     0.694066666667     0.806333333333     0.550000000000     0          
O        O      0.881166666667     0.666666666667     0.400000000000     0          
O        O      0.933800000000     0.732866666667     0.450000000000     0          
O        O      0.854966666667     0.709966666667     0.450000000000     0          
T        Si     0.887733333333     0.694066666667     0.450000000000     0          
O        O      0.881166666667     0.881166666667     0.500000000000     0          
O        O      0.867600000000     0.933800000000     0.550000000000     0          
O        O      0.811666666667     0.854966666667     0.550000000000     0          
T        Si     0.860333333333     0.887733333333     0.550000000000     0          
O        O      0.666666666667     0.881166666667     0.400000000000     0          
O        O      0.933800000000     0.867600000000     0.450000000000     0          
O        O      0.956700000000     0.811666666667     0.450000000000     0          
T        Si     0.972600000000     0.860333333333     0.450000000000     0          
O        O      0.785500000000     0.666666666667     0.500000000000     0          
O        O      0.732866666667     0.933800000000     0.550000000000     0          
O        O      0.811700000000     0.956700000000     0.550000000000     0          
T        Si     0.778933333333     0.972600000000     0.550000000000     0          
O        O      0.785500000000     0.785500000000     0.400000000000     0          
O        O      0.799066666667     0.732866666667     0.450000000000     0          
O        O      0.855000000000     0.811700000000     0.450000000000     0          
T        Si     0.806333333333     0.778933333333     0.450000000000     0          
T        Si     0.860333333333     0.972600000000     0.550000000000     0          
T        Si     0.887733333333     0.860333333333     0.450000000000     0          
T        Si     0.694066666667     0.887733333333     0.550000000000     0          
T        Si     0.806333333333     0.694066666667     0.450000000000     0          
T        Si     0.778933333333     0.806333333333     0.550000000000     0          
T        Si     0.972600000000     0.778933333333     0.450000000000     0          
O        O      0.666666666667     0.881166666667     0.500000000000     0          
O        O      0.785500000000     0.666666666667     0.400000000000     0          
O        O      0.785500000000     0.785500000000     0.500000000000     0          
O        O      0.666666666667     0.785500000000     0.400000000000     0          
O        O      0.881166666667     0.666666666667     0.500000000000     0          
O        O      0.881166666667     0.881166666667     0.400000000000     0          
O        O      0.666666666667     0.785500000000     0.700000000000     0          
O        O      0.732866666667     0.799066666667     0.750000000000     0          
O        O      0.709966666667     0.855000000000     0.750000000000     0          
T        Si     0.694066666667     0.806333333333     0.750000000000     0          
O        O      0.881166666667     0.666666666667     0.600000000000     0          
O        O      0.933800000000     0.732866666667     0.650000000000     0          
O        O      0.854966666667     0.709966666667     0.650000000000     0          
T        Si     0.887733333333     0.694066666667     0.650000000000     0          
O        O      0.881166666667     0.881166666667     0.700000000000     0          
O        O      0.867600000000     0.933800000000     0.750000000000     0          
O        O      0.811666666667     0.854966666667     0.750000000000     0          
T        Si     0.860333333333     0.887733333333     0.750000000000     0          
O        O      0.666666666667     0.881166666667     0.600000000000     0          
O        O      0.933800000000     0.867600000000     0.650000000000     0          
O        O      0.956700000000     0.811666666667     0.650000000000     0          
T        Si     0.972600000000     0.860333333333     0.650000000000     0          
O        O      0.785500000000     0.666666666667     0.700000000000     0          
O        O      0.732866666667     0.933800000000     0.750000000000     0          
O        O      0.811700000000     0.956700000000     0.750000000000     0          
T        Si     0.778933333333     0.972600000000     0.750000000000     0          
O        O      0.785500000000     0.785500000000     0.600000000000     0          
O        O      0.799066666667     0.732866666667     0.650000000000     0          
O        O      0.855000000000     0.811700000000     0.650000000000     0          
T        Si     0.806333333333     0.778933333333     0.650000000000     0          
T        Si     0.860333333333     0.972600000000     0.750000000000     0          
T        Si     0.887733333333     0.860333333333     0.650000000000     0          
T        Si     0.694066666667     0.887733333333     0.750000000000     0          
T        Si     0.806333333333     0.694066666667     0.650000000000     0          
T        Si     0.778933333333     0.806333333333     0.750000000000     0          
T        Si     0.972600000000     0.778933333333     0.650000000000     0          
O        O      0.666666666667     0.881166666667     0.700000000000     0          
O        O      0.785500000000     0.666666666667     0.600000000000     0          
O        O      0.785500000000     0.785500000000     0.700000000000     0          
O        O      0.666666666667     0.785500000000     0.600000000000     0          
O        O      0.881166666667     0.666666666667     0.700000000000     0          
O        O      0.881166666667     0.881166666667     0.600000000000     0          
O        O      0.666666666667     0.785500000000     0.900000000000     0          
O        O      0.732866666667     0.799066666667     0.950000000000     0          
O        O      0.709966666667     0.855000000000     0.950000000000     0          
T        Si     0.694066666667     0.806333333333     0.950000000000     0          
O        O      0.881166666667     0.666666666667     0.800000000000     0          
O        O      0.933800000000     0.732866666667     0.850000000000     0          
O        O      0.854966666667     0.709966666667     0.850000000000     0          
T        Si     0.887733333333     0.694066666667     0.850000000000     0          
O        O      0.881166666667     0.881166666667     0.900000000000     0          
O        O      0.867600000000     0.933800000000     0.950000000000     0          
O        O      0.811666666667     0.854966666667     0.950000000000     0          
T        Si     0.860333333333     0.887733333333     0.950000000000     0          
O        O      0.666666666667     0.881166666667     0.800000000000     0          
O        O      0.933800000000     0.867600000000     0.850000000000     0          
O        O      0.956700000000     0.811666666667     0.850000000000     0          
T        Si     0.972600000000     0.860333333333     0.850000000000     0          
O        O      0.785500000000     0.666666666667     0.900000000000     0          
O        O      0.732866666667     0.933800000000     0.950000000000     0          
O        O      0.811700000000     0.956700000000     0.950000000000     0          
T        Si     0.778933333333     0.972600000000     0.950000000000     0          
O        O      0.785500000000     0.785500000000     0.800000000000     0          
O        O      0.799066666667     0.732866666667     0.850000000000     0          
O        O      0.855000000000     0.811700000000     0.850000000000     0          
T        Si     0.806333333333     0.778933333333     0.850000000000     0          
T        Si     0.860333333333     0.972600000000     0.950000000000     0          
T        Si     0.887733333333     0.860333333333     0.850000000000     0          
T        Si     0.694066666667     0.887733333333     0.950000000000     0          
T        Si     0.806333333333     0.694066666667     0.850000000000     0          
T        Si     0.778933333333     0.806333333333     0.950000000000     0          
T        Si     0.972600000000     0.778933333333     0.850000000000     0          
O        O      0.666666666667     0.881166666667     0.900000000000     0          
O        O      0.785500000000     0.666666666667     0.800000000000     0          
O        O      0.785500000000     0.785500000000     0.900000000000     0          
O        O      0.666666666667     0.785500000000     0.800000000000     0          
O        O      0.881166666667     0.666666666667     0.900000000000     0          
O        O      0.881166666667     0.881166666667     0.800000000000     0          


