data_zeolite

_audit_creation_method RASPA-1.0
_audit_creation_date 2021-6-7
_audit_author_name ''

_cell_length_a    12.281
_cell_length_b    12.281
_cell_length_c    15.632
_cell_angle_alpha 90
_cell_angle_beta  90
_cell_angle_gamma 120
_cell_volume      36752.4

_symmetry_cell_setting          hexagonal
_symmetry_space_group_name_Hall 'P 1'
_symmetry_space_group_name_H-M  'P 1'
_symmetry_Int_Tables_number     1

_symmetry_equiv_pos_as_xyz 'x,y,z'

loop_
_atom_site_label
_atom_site_type_symbol
_atom_site_fract_x
_atom_site_fract_y
_atom_site_fract_z
_atom_site_charge
T        Si     0.109966666667     0.305800000000     0.086200000000     0          
T        Si     0.085433333333     0.332500000000     0.172650000000     0          
T        Si     0.138166666667     0.025900000000     0.250000000000     0          
T        Si     0.084166666667     0.332200000000     0.000000000000     0          
T        Si     0.195833333333     0.223366666667     0.413800000000     0          
T        Si     0.247066666667     0.247900000000     0.327350000000     0          
T        Si     0.221066666667     0.195166666667     0.250000000000     0          
T        Si     0.248033333333     0.249166666667     0.000000000000     0          
T        Si     0.027533333333     0.137500000000     0.086200000000     0          
T        Si     0.000833333333     0.086266666667     0.172650000000     0          
T        Si     0.307433333333     0.112266666667     0.250000000000     0          
T        Si     0.001133333333     0.085300000000     0.000000000000     0          
T        Si     0.109966666667     0.305800000000     0.413800000000     0          
T        Si     0.085433333333     0.332500000000     0.327350000000     0          
T        Si     0.195833333333     0.223366666667     0.086200000000     0          
T        Si     0.247066666667     0.247900000000     0.172650000000     0          
T        Si     0.027533333333     0.137500000000     0.413800000000     0          
T        Si     0.000833333333     0.086266666667     0.327350000000     0          
T        Si     0.027533333333     0.223366666667     0.413800000000     0          
T        Si     0.000833333333     0.247900000000     0.327350000000     0          
T        Si     0.307433333333     0.195166666667     0.250000000000     0          
T        Si     0.001133333333     0.249166666667     0.000000000000     0          
T        Si     0.195833333333     0.305800000000     0.086200000000     0          
T        Si     0.247066666667     0.332500000000     0.172650000000     0          
T        Si     0.221066666667     0.025900000000     0.250000000000     0          
T        Si     0.248033333333     0.332200000000     0.000000000000     0          
T        Si     0.109966666667     0.137500000000     0.413800000000     0          
T        Si     0.085433333333     0.086266666667     0.327350000000     0          
T        Si     0.138166666667     0.112266666667     0.250000000000     0          
T        Si     0.084166666667     0.085300000000     0.000000000000     0          
T        Si     0.027533333333     0.223366666667     0.086200000000     0          
T        Si     0.000833333333     0.247900000000     0.172650000000     0          
T        Si     0.195833333333     0.305800000000     0.413800000000     0          
T        Si     0.247066666667     0.332500000000     0.327350000000     0          
T        Si     0.109966666667     0.137500000000     0.086200000000     0          
T        Si     0.085433333333     0.086266666667     0.172650000000     0          
T        Si     0.109966666667     0.305800000000     0.586200000000     0          
T        Si     0.085433333333     0.332500000000     0.672650000000     0          
T        Si     0.138166666667     0.025900000000     0.750000000000     0          
T        Si     0.084166666667     0.332200000000     0.500000000000     0          
T        Si     0.195833333333     0.223366666667     0.913800000000     0          
T        Si     0.247066666667     0.247900000000     0.827350000000     0          
T        Si     0.221066666667     0.195166666667     0.750000000000     0          
T        Si     0.248033333333     0.249166666667     0.500000000000     0          
T        Si     0.027533333333     0.137500000000     0.586200000000     0          
T        Si     0.000833333333     0.086266666667     0.672650000000     0          
T        Si     0.307433333333     0.112266666667     0.750000000000     0          
T        Si     0.001133333333     0.085300000000     0.500000000000     0          
T        Si     0.109966666667     0.305800000000     0.913800000000     0          
T        Si     0.085433333333     0.332500000000     0.827350000000     0          
T        Si     0.195833333333     0.223366666667     0.586200000000     0          
T        Si     0.247066666667     0.247900000000     0.672650000000     0          
T        Si     0.027533333333     0.137500000000     0.913800000000     0          
T        Si     0.000833333333     0.086266666667     0.827350000000     0          
T        Si     0.027533333333     0.223366666667     0.913800000000     0          
T        Si     0.000833333333     0.247900000000     0.827350000000     0          
T        Si     0.307433333333     0.195166666667     0.750000000000     0          
T        Si     0.001133333333     0.249166666667     0.500000000000     0          
T        Si     0.195833333333     0.305800000000     0.586200000000     0          
T        Si     0.247066666667     0.332500000000     0.672650000000     0          
T        Si     0.221066666667     0.025900000000     0.750000000000     0          
T        Si     0.248033333333     0.332200000000     0.500000000000     0          
T        Si     0.109966666667     0.137500000000     0.913800000000     0          
T        Si     0.085433333333     0.086266666667     0.827350000000     0          
T        Si     0.138166666667     0.112266666667     0.750000000000     0          
T        Si     0.084166666667     0.085300000000     0.500000000000     0          
T        Si     0.027533333333     0.223366666667     0.586200000000     0          
T        Si     0.000833333333     0.247900000000     0.672650000000     0          
T        Si     0.195833333333     0.305800000000     0.913800000000     0          
T        Si     0.247066666667     0.332500000000     0.827350000000     0          
T        Si     0.109966666667     0.137500000000     0.586200000000     0          
T        Si     0.085433333333     0.086266666667     0.672650000000     0          
T        Si     0.109966666667     0.639133333333     0.086200000000     0          
T        Si     0.085433333333     0.665833333333     0.172650000000     0          
T        Si     0.138166666667     0.359233333333     0.250000000000     0          
T        Si     0.084166666667     0.665533333333     0.000000000000     0          
T        Si     0.195833333333     0.556700000000     0.413800000000     0          
T        Si     0.247066666667     0.581233333333     0.327350000000     0          
T        Si     0.221066666667     0.528500000000     0.250000000000     0          
T        Si     0.248033333333     0.582500000000     0.000000000000     0          
T        Si     0.027533333333     0.470833333333     0.086200000000     0          
T        Si     0.000833333333     0.419600000000     0.172650000000     0          
T        Si     0.307433333333     0.445600000000     0.250000000000     0          
T        Si     0.001133333333     0.418633333333     0.000000000000     0          
T        Si     0.109966666667     0.639133333333     0.413800000000     0          
T        Si     0.085433333333     0.665833333333     0.327350000000     0          
T        Si     0.195833333333     0.556700000000     0.086200000000     0          
T        Si     0.247066666667     0.581233333333     0.172650000000     0          
T        Si     0.027533333333     0.470833333333     0.413800000000     0          
T        Si     0.000833333333     0.419600000000     0.327350000000     0          
T        Si     0.027533333333     0.556700000000     0.413800000000     0          
T        Si     0.000833333333     0.581233333333     0.327350000000     0          
T        Si     0.307433333333     0.528500000000     0.250000000000     0          
T        Si     0.001133333333     0.582500000000     0.000000000000     0          
T        Si     0.195833333333     0.639133333333     0.086200000000     0          
T        Si     0.247066666667     0.665833333333     0.172650000000     0          
T        Si     0.221066666667     0.359233333333     0.250000000000     0          
T        Si     0.248033333333     0.665533333333     0.000000000000     0          
T        Si     0.109966666667     0.470833333333     0.413800000000     0          
T        Si     0.085433333333     0.419600000000     0.327350000000     0          
T        Si     0.138166666667     0.445600000000     0.250000000000     0          
T        Si     0.084166666667     0.418633333333     0.000000000000     0          
T        Si     0.027533333333     0.556700000000     0.086200000000     0          
T        Si     0.000833333333     0.581233333333     0.172650000000     0          
T        Si     0.195833333333     0.639133333333     0.413800000000     0          
T        Si     0.247066666667     0.665833333333     0.327350000000     0          
T        Si     0.109966666667     0.470833333333     0.086200000000     0          
T        Si     0.085433333333     0.419600000000     0.172650000000     0          
T        Si     0.109966666667     0.639133333333     0.586200000000     0          
T        Si     0.085433333333     0.665833333333     0.672650000000     0          
T        Si     0.138166666667     0.359233333333     0.750000000000     0          
T        Si     0.084166666667     0.665533333333     0.500000000000     0          
T        Si     0.195833333333     0.556700000000     0.913800000000     0          
T        Si     0.247066666667     0.581233333333     0.827350000000     0          
T        Si     0.221066666667     0.528500000000     0.750000000000     0          
T        Si     0.248033333333     0.582500000000     0.500000000000     0          
T        Si     0.027533333333     0.470833333333     0.586200000000     0          
T        Si     0.000833333333     0.419600000000     0.672650000000     0          
T        Si     0.307433333333     0.445600000000     0.750000000000     0          
T        Si     0.001133333333     0.418633333333     0.500000000000     0          
T        Si     0.109966666667     0.639133333333     0.913800000000     0          
T        Si     0.085433333333     0.665833333333     0.827350000000     0          
T        Si     0.195833333333     0.556700000000     0.586200000000     0          
T        Si     0.247066666667     0.581233333333     0.672650000000     0          
T        Si     0.027533333333     0.470833333333     0.913800000000     0          
T        Si     0.000833333333     0.419600000000     0.827350000000     0          
T        Si     0.027533333333     0.556700000000     0.913800000000     0          
T        Si     0.000833333333     0.581233333333     0.827350000000     0          
T        Si     0.307433333333     0.528500000000     0.750000000000     0          
T        Si     0.001133333333     0.582500000000     0.500000000000     0          
T        Si     0.195833333333     0.639133333333     0.586200000000     0          
T        Si     0.247066666667     0.665833333333     0.672650000000     0          
T        Si     0.221066666667     0.359233333333     0.750000000000     0          
T        Si     0.248033333333     0.665533333333     0.500000000000     0          
T        Si     0.109966666667     0.470833333333     0.913800000000     0          
T        Si     0.085433333333     0.419600000000     0.827350000000     0          
T        Si     0.138166666667     0.445600000000     0.750000000000     0          
T        Si     0.084166666667     0.418633333333     0.500000000000     0          
T        Si     0.027533333333     0.556700000000     0.586200000000     0          
T        Si     0.000833333333     0.581233333333     0.672650000000     0          
T        Si     0.195833333333     0.639133333333     0.913800000000     0          
T        Si     0.247066666667     0.665833333333     0.827350000000     0          
T        Si     0.109966666667     0.470833333333     0.586200000000     0          
T        Si     0.085433333333     0.419600000000     0.672650000000     0          
T        Si     0.109966666667     0.972466666667     0.086200000000     0          
T        Si     0.085433333333     0.999166666667     0.172650000000     0          
T        Si     0.138166666667     0.692566666667     0.250000000000     0          
T        Si     0.084166666667     0.998866666667     0.000000000000     0          
T        Si     0.195833333333     0.890033333333     0.413800000000     0          
T        Si     0.247066666667     0.914566666667     0.327350000000     0          
T        Si     0.221066666667     0.861833333333     0.250000000000     0          
T        Si     0.248033333333     0.915833333333     0.000000000000     0          
T        Si     0.027533333333     0.804166666667     0.086200000000     0          
T        Si     0.000833333333     0.752933333333     0.172650000000     0          
T        Si     0.307433333333     0.778933333333     0.250000000000     0          
T        Si     0.001133333333     0.751966666667     0.000000000000     0          
T        Si     0.109966666667     0.972466666667     0.413800000000     0          
T        Si     0.085433333333     0.999166666667     0.327350000000     0          
T        Si     0.195833333333     0.890033333333     0.086200000000     0          
T        Si     0.247066666667     0.914566666667     0.172650000000     0          
T        Si     0.027533333333     0.804166666667     0.413800000000     0          
T        Si     0.000833333333     0.752933333333     0.327350000000     0          
T        Si     0.027533333333     0.890033333333     0.413800000000     0          
T        Si     0.000833333333     0.914566666667     0.327350000000     0          
T        Si     0.307433333333     0.861833333333     0.250000000000     0          
T        Si     0.001133333333     0.915833333333     0.000000000000     0          
T        Si     0.195833333333     0.972466666667     0.086200000000     0          
T        Si     0.247066666667     0.999166666667     0.172650000000     0          
T        Si     0.221066666667     0.692566666667     0.250000000000     0          
T        Si     0.248033333333     0.998866666667     0.000000000000     0          
T        Si     0.109966666667     0.804166666667     0.413800000000     0          
T        Si     0.085433333333     0.752933333333     0.327350000000     0          
T        Si     0.138166666667     0.778933333333     0.250000000000     0          
T        Si     0.084166666667     0.751966666667     0.000000000000     0          
T        Si     0.027533333333     0.890033333333     0.086200000000     0          
T        Si     0.000833333333     0.914566666667     0.172650000000     0          
T        Si     0.195833333333     0.972466666667     0.413800000000     0          
T        Si     0.247066666667     0.999166666667     0.327350000000     0          
T        Si     0.109966666667     0.804166666667     0.086200000000     0          
T        Si     0.085433333333     0.752933333333     0.172650000000     0          
T        Si     0.109966666667     0.972466666667     0.586200000000     0          
T        Si     0.085433333333     0.999166666667     0.672650000000     0          
T        Si     0.138166666667     0.692566666667     0.750000000000     0          
T        Si     0.084166666667     0.998866666667     0.500000000000     0          
T        Si     0.195833333333     0.890033333333     0.913800000000     0          
T        Si     0.247066666667     0.914566666667     0.827350000000     0          
T        Si     0.221066666667     0.861833333333     0.750000000000     0          
T        Si     0.248033333333     0.915833333333     0.500000000000     0          
T        Si     0.027533333333     0.804166666667     0.586200000000     0          
T        Si     0.000833333333     0.752933333333     0.672650000000     0          
T        Si     0.307433333333     0.778933333333     0.750000000000     0          
T        Si     0.001133333333     0.751966666667     0.500000000000     0          
T        Si     0.109966666667     0.972466666667     0.913800000000     0          
T        Si     0.085433333333     0.999166666667     0.827350000000     0          
T        Si     0.195833333333     0.890033333333     0.586200000000     0          
T        Si     0.247066666667     0.914566666667     0.672650000000     0          
T        Si     0.027533333333     0.804166666667     0.913800000000     0          
T        Si     0.000833333333     0.752933333333     0.827350000000     0          
T        Si     0.027533333333     0.890033333333     0.913800000000     0          
T        Si     0.000833333333     0.914566666667     0.827350000000     0          
T        Si     0.307433333333     0.861833333333     0.750000000000     0          
T        Si     0.001133333333     0.915833333333     0.500000000000     0          
T        Si     0.195833333333     0.972466666667     0.586200000000     0          
T        Si     0.247066666667     0.999166666667     0.672650000000     0          
T        Si     0.221066666667     0.692566666667     0.750000000000     0          
T        Si     0.248033333333     0.998866666667     0.500000000000     0          
T        Si     0.109966666667     0.804166666667     0.913800000000     0          
T        Si     0.085433333333     0.752933333333     0.827350000000     0          
T        Si     0.138166666667     0.778933333333     0.750000000000     0          
T        Si     0.084166666667     0.751966666667     0.500000000000     0          
T        Si     0.027533333333     0.890033333333     0.586200000000     0          
T        Si     0.000833333333     0.914566666667     0.672650000000     0          
T        Si     0.195833333333     0.972466666667     0.913800000000     0          
T        Si     0.247066666667     0.999166666667     0.827350000000     0          
T        Si     0.109966666667     0.804166666667     0.586200000000     0          
T        Si     0.085433333333     0.752933333333     0.672650000000     0          
T        Si     0.443300000000     0.305800000000     0.086200000000     0          
T        Si     0.418766666667     0.332500000000     0.172650000000     0          
T        Si     0.471500000000     0.025900000000     0.250000000000     0          
T        Si     0.417500000000     0.332200000000     0.000000000000     0          
T        Si     0.529166666667     0.223366666667     0.413800000000     0          
T        Si     0.580400000000     0.247900000000     0.327350000000     0          
T        Si     0.554400000000     0.195166666667     0.250000000000     0          
T        Si     0.581366666667     0.249166666667     0.000000000000     0          
T        Si     0.360866666667     0.137500000000     0.086200000000     0          
T        Si     0.334166666667     0.086266666667     0.172650000000     0          
T        Si     0.640766666667     0.112266666667     0.250000000000     0          
T        Si     0.334466666667     0.085300000000     0.000000000000     0          
T        Si     0.443300000000     0.305800000000     0.413800000000     0          
T        Si     0.418766666667     0.332500000000     0.327350000000     0          
T        Si     0.529166666667     0.223366666667     0.086200000000     0          
T        Si     0.580400000000     0.247900000000     0.172650000000     0          
T        Si     0.360866666667     0.137500000000     0.413800000000     0          
T        Si     0.334166666667     0.086266666667     0.327350000000     0          
T        Si     0.360866666667     0.223366666667     0.413800000000     0          
T        Si     0.334166666667     0.247900000000     0.327350000000     0          
T        Si     0.640766666667     0.195166666667     0.250000000000     0          
T        Si     0.334466666667     0.249166666667     0.000000000000     0          
T        Si     0.529166666667     0.305800000000     0.086200000000     0          
T        Si     0.580400000000     0.332500000000     0.172650000000     0          
T        Si     0.554400000000     0.025900000000     0.250000000000     0          
T        Si     0.581366666667     0.332200000000     0.000000000000     0          
T        Si     0.443300000000     0.137500000000     0.413800000000     0          
T        Si     0.418766666667     0.086266666667     0.327350000000     0          
T        Si     0.471500000000     0.112266666667     0.250000000000     0          
T        Si     0.417500000000     0.085300000000     0.000000000000     0          
T        Si     0.360866666667     0.223366666667     0.086200000000     0          
T        Si     0.334166666667     0.247900000000     0.172650000000     0          
T        Si     0.529166666667     0.305800000000     0.413800000000     0          
T        Si     0.580400000000     0.332500000000     0.327350000000     0          
T        Si     0.443300000000     0.137500000000     0.086200000000     0          
T        Si     0.418766666667     0.086266666667     0.172650000000     0          
T        Si     0.443300000000     0.305800000000     0.586200000000     0          
T        Si     0.418766666667     0.332500000000     0.672650000000     0          
T        Si     0.471500000000     0.025900000000     0.750000000000     0          
T        Si     0.417500000000     0.332200000000     0.500000000000     0          
T        Si     0.529166666667     0.223366666667     0.913800000000     0          
T        Si     0.580400000000     0.247900000000     0.827350000000     0          
T        Si     0.554400000000     0.195166666667     0.750000000000     0          
T        Si     0.581366666667     0.249166666667     0.500000000000     0          
T        Si     0.360866666667     0.137500000000     0.586200000000     0          
T        Si     0.334166666667     0.086266666667     0.672650000000     0          
T        Si     0.640766666667     0.112266666667     0.750000000000     0          
T        Si     0.334466666667     0.085300000000     0.500000000000     0          
T        Si     0.443300000000     0.305800000000     0.913800000000     0          
T        Si     0.418766666667     0.332500000000     0.827350000000     0          
T        Si     0.529166666667     0.223366666667     0.586200000000     0          
T        Si     0.580400000000     0.247900000000     0.672650000000     0          
T        Si     0.360866666667     0.137500000000     0.913800000000     0          
T        Si     0.334166666667     0.086266666667     0.827350000000     0          
T        Si     0.360866666667     0.223366666667     0.913800000000     0          
T        Si     0.334166666667     0.247900000000     0.827350000000     0          
T        Si     0.640766666667     0.195166666667     0.750000000000     0          
T        Si     0.334466666667     0.249166666667     0.500000000000     0          
T        Si     0.529166666667     0.305800000000     0.586200000000     0          
T        Si     0.580400000000     0.332500000000     0.672650000000     0          
T        Si     0.554400000000     0.025900000000     0.750000000000     0          
T        Si     0.581366666667     0.332200000000     0.500000000000     0          
T        Si     0.443300000000     0.137500000000     0.913800000000     0          
T        Si     0.418766666667     0.086266666667     0.827350000000     0          
T        Si     0.471500000000     0.112266666667     0.750000000000     0          
T        Si     0.417500000000     0.085300000000     0.500000000000     0          
T        Si     0.360866666667     0.223366666667     0.586200000000     0          
T        Si     0.334166666667     0.247900000000     0.672650000000     0          
T        Si     0.529166666667     0.305800000000     0.913800000000     0          
T        Si     0.580400000000     0.332500000000     0.827350000000     0          
T        Si     0.443300000000     0.137500000000     0.586200000000     0          
T        Si     0.418766666667     0.086266666667     0.672650000000     0          
T        Si     0.443300000000     0.639133333333     0.086200000000     0          
T        Si     0.418766666667     0.665833333333     0.172650000000     0          
T        Si     0.471500000000     0.359233333333     0.250000000000     0          
T        Si     0.417500000000     0.665533333333     0.000000000000     0          
T        Si     0.529166666667     0.556700000000     0.413800000000     0          
T        Si     0.580400000000     0.581233333333     0.327350000000     0          
T        Si     0.554400000000     0.528500000000     0.250000000000     0          
T        Si     0.581366666667     0.582500000000     0.000000000000     0          
T        Si     0.360866666667     0.470833333333     0.086200000000     0          
T        Si     0.334166666667     0.419600000000     0.172650000000     0          
T        Si     0.640766666667     0.445600000000     0.250000000000     0          
T        Si     0.334466666667     0.418633333333     0.000000000000     0          
T        Si     0.443300000000     0.639133333333     0.413800000000     0          
T        Si     0.418766666667     0.665833333333     0.327350000000     0          
T        Si     0.529166666667     0.556700000000     0.086200000000     0          
T        Si     0.580400000000     0.581233333333     0.172650000000     0          
T        Si     0.360866666667     0.470833333333     0.413800000000     0          
T        Si     0.334166666667     0.419600000000     0.327350000000     0          
T        Si     0.360866666667     0.556700000000     0.413800000000     0          
T        Si     0.334166666667     0.581233333333     0.327350000000     0          
T        Si     0.640766666667     0.528500000000     0.250000000000     0          
T        Si     0.334466666667     0.582500000000     0.000000000000     0          
T        Si     0.529166666667     0.639133333333     0.086200000000     0          
T        Si     0.580400000000     0.665833333333     0.172650000000     0          
T        Si     0.554400000000     0.359233333333     0.250000000000     0          
T        Si     0.581366666667     0.665533333333     0.000000000000     0          
T        Si     0.443300000000     0.470833333333     0.413800000000     0          
T        Si     0.418766666667     0.419600000000     0.327350000000     0          
T        Si     0.471500000000     0.445600000000     0.250000000000     0          
T        Si     0.417500000000     0.418633333333     0.000000000000     0          
T        Si     0.360866666667     0.556700000000     0.086200000000     0          
T        Si     0.334166666667     0.581233333333     0.172650000000     0          
T        Si     0.529166666667     0.639133333333     0.413800000000     0          
T        Si     0.580400000000     0.665833333333     0.327350000000     0          
T        Si     0.443300000000     0.470833333333     0.086200000000     0          
T        Si     0.418766666667     0.419600000000     0.172650000000     0          
T        Si     0.443300000000     0.639133333333     0.586200000000     0          
T        Si     0.418766666667     0.665833333333     0.672650000000     0          
T        Si     0.471500000000     0.359233333333     0.750000000000     0          
T        Si     0.417500000000     0.665533333333     0.500000000000     0          
T        Si     0.529166666667     0.556700000000     0.913800000000     0          
T        Si     0.580400000000     0.581233333333     0.827350000000     0          
T        Si     0.554400000000     0.528500000000     0.750000000000     0          
T        Si     0.581366666667     0.582500000000     0.500000000000     0          
T        Si     0.360866666667     0.470833333333     0.586200000000     0          
T        Si     0.334166666667     0.419600000000     0.672650000000     0          
T        Si     0.640766666667     0.445600000000     0.750000000000     0          
T        Si     0.334466666667     0.418633333333     0.500000000000     0          
T        Si     0.443300000000     0.639133333333     0.913800000000     0          
T        Si     0.418766666667     0.665833333333     0.827350000000     0          
T        Si     0.529166666667     0.556700000000     0.586200000000     0          
T        Si     0.580400000000     0.581233333333     0.672650000000     0          
T        Si     0.360866666667     0.470833333333     0.913800000000     0          
T        Si     0.334166666667     0.419600000000     0.827350000000     0          
T        Si     0.360866666667     0.556700000000     0.913800000000     0          
T        Si     0.334166666667     0.581233333333     0.827350000000     0          
T        Si     0.640766666667     0.528500000000     0.750000000000     0          
T        Si     0.334466666667     0.582500000000     0.500000000000     0          
T        Si     0.529166666667     0.639133333333     0.586200000000     0          
T        Si     0.580400000000     0.665833333333     0.672650000000     0          
T        Si     0.554400000000     0.359233333333     0.750000000000     0          
T        Si     0.581366666667     0.665533333333     0.500000000000     0          
T        Si     0.443300000000     0.470833333333     0.913800000000     0          
T        Si     0.418766666667     0.419600000000     0.827350000000     0          
T        Si     0.471500000000     0.445600000000     0.750000000000     0          
T        Si     0.417500000000     0.418633333333     0.500000000000     0          
T        Si     0.360866666667     0.556700000000     0.586200000000     0          
T        Si     0.334166666667     0.581233333333     0.672650000000     0          
T        Si     0.529166666667     0.639133333333     0.913800000000     0          
T        Si     0.580400000000     0.665833333333     0.827350000000     0          
T        Si     0.443300000000     0.470833333333     0.586200000000     0          
T        Si     0.418766666667     0.419600000000     0.672650000000     0          
T        Si     0.443300000000     0.972466666667     0.086200000000     0          
T        Si     0.418766666667     0.999166666667     0.172650000000     0          
T        Si     0.471500000000     0.692566666667     0.250000000000     0          
T        Si     0.417500000000     0.998866666667     0.000000000000     0          
T        Si     0.529166666667     0.890033333333     0.413800000000     0          
T        Si     0.580400000000     0.914566666667     0.327350000000     0          
T        Si     0.554400000000     0.861833333333     0.250000000000     0          
T        Si     0.581366666667     0.915833333333     0.000000000000     0          
T        Si     0.360866666667     0.804166666667     0.086200000000     0          
T        Si     0.334166666667     0.752933333333     0.172650000000     0          
T        Si     0.640766666667     0.778933333333     0.250000000000     0          
T        Si     0.334466666667     0.751966666667     0.000000000000     0          
T        Si     0.443300000000     0.972466666667     0.413800000000     0          
T        Si     0.418766666667     0.999166666667     0.327350000000     0          
T        Si     0.529166666667     0.890033333333     0.086200000000     0          
T        Si     0.580400000000     0.914566666667     0.172650000000     0          
T        Si     0.360866666667     0.804166666667     0.413800000000     0          
T        Si     0.334166666667     0.752933333333     0.327350000000     0          
T        Si     0.360866666667     0.890033333333     0.413800000000     0          
T        Si     0.334166666667     0.914566666667     0.327350000000     0          
T        Si     0.640766666667     0.861833333333     0.250000000000     0          
T        Si     0.334466666667     0.915833333333     0.000000000000     0          
T        Si     0.529166666667     0.972466666667     0.086200000000     0          
T        Si     0.580400000000     0.999166666667     0.172650000000     0          
T        Si     0.554400000000     0.692566666667     0.250000000000     0          
T        Si     0.581366666667     0.998866666667     0.000000000000     0          
T        Si     0.443300000000     0.804166666667     0.413800000000     0          
T        Si     0.418766666667     0.752933333333     0.327350000000     0          
T        Si     0.471500000000     0.778933333333     0.250000000000     0          
T        Si     0.417500000000     0.751966666667     0.000000000000     0          
T        Si     0.360866666667     0.890033333333     0.086200000000     0          
T        Si     0.334166666667     0.914566666667     0.172650000000     0          
T        Si     0.529166666667     0.972466666667     0.413800000000     0          
T        Si     0.580400000000     0.999166666667     0.327350000000     0          
T        Si     0.443300000000     0.804166666667     0.086200000000     0          
T        Si     0.418766666667     0.752933333333     0.172650000000     0          
T        Si     0.443300000000     0.972466666667     0.586200000000     0          
T        Si     0.418766666667     0.999166666667     0.672650000000     0          
T        Si     0.471500000000     0.692566666667     0.750000000000     0          
T        Si     0.417500000000     0.998866666667     0.500000000000     0          
T        Si     0.529166666667     0.890033333333     0.913800000000     0          
T        Si     0.580400000000     0.914566666667     0.827350000000     0          
T        Si     0.554400000000     0.861833333333     0.750000000000     0          
T        Si     0.581366666667     0.915833333333     0.500000000000     0          
T        Si     0.360866666667     0.804166666667     0.586200000000     0          
T        Si     0.334166666667     0.752933333333     0.672650000000     0          
T        Si     0.640766666667     0.778933333333     0.750000000000     0          
T        Si     0.334466666667     0.751966666667     0.500000000000     0          
T        Si     0.443300000000     0.972466666667     0.913800000000     0          
T        Si     0.418766666667     0.999166666667     0.827350000000     0          
T        Si     0.529166666667     0.890033333333     0.586200000000     0          
T        Si     0.580400000000     0.914566666667     0.672650000000     0          
T        Si     0.360866666667     0.804166666667     0.913800000000     0          
T        Si     0.334166666667     0.752933333333     0.827350000000     0          
T        Si     0.360866666667     0.890033333333     0.913800000000     0          
T        Si     0.334166666667     0.914566666667     0.827350000000     0          
T        Si     0.640766666667     0.861833333333     0.750000000000     0          
T        Si     0.334466666667     0.915833333333     0.500000000000     0          
T        Si     0.529166666667     0.972466666667     0.586200000000     0          
T        Si     0.580400000000     0.999166666667     0.672650000000     0          
T        Si     0.554400000000     0.692566666667     0.750000000000     0          
T        Si     0.581366666667     0.998866666667     0.500000000000     0          
T        Si     0.443300000000     0.804166666667     0.913800000000     0          
T        Si     0.418766666667     0.752933333333     0.827350000000     0          
T        Si     0.471500000000     0.778933333333     0.750000000000     0          
T        Si     0.417500000000     0.751966666667     0.500000000000     0          
T        Si     0.360866666667     0.890033333333     0.586200000000     0          
T        Si     0.334166666667     0.914566666667     0.672650000000     0          
T        Si     0.529166666667     0.972466666667     0.913800000000     0          
T        Si     0.580400000000     0.999166666667     0.827350000000     0          
T        Si     0.443300000000     0.804166666667     0.586200000000     0          
T        Si     0.418766666667     0.752933333333     0.672650000000     0          
T        Si     0.776633333333     0.305800000000     0.086200000000     0          
T        Si     0.752100000000     0.332500000000     0.172650000000     0          
T        Si     0.804833333333     0.025900000000     0.250000000000     0          
T        Si     0.750833333333     0.332200000000     0.000000000000     0          
T        Si     0.862500000000     0.223366666667     0.413800000000     0          
T        Si     0.913733333333     0.247900000000     0.327350000000     0          
T        Si     0.887733333333     0.195166666667     0.250000000000     0          
T        Si     0.914700000000     0.249166666667     0.000000000000     0          
T        Si     0.694200000000     0.137500000000     0.086200000000     0          
T        Si     0.667500000000     0.086266666667     0.172650000000     0          
T        Si     0.974100000000     0.112266666667     0.250000000000     0          
T        Si     0.667800000000     0.085300000000     0.000000000000     0          
T        Si     0.776633333333     0.305800000000     0.413800000000     0          
T        Si     0.752100000000     0.332500000000     0.327350000000     0          
T        Si     0.862500000000     0.223366666667     0.086200000000     0          
T        Si     0.913733333333     0.247900000000     0.172650000000     0          
T        Si     0.694200000000     0.137500000000     0.413800000000     0          
T        Si     0.667500000000     0.086266666667     0.327350000000     0          
T        Si     0.694200000000     0.223366666667     0.413800000000     0          
T        Si     0.667500000000     0.247900000000     0.327350000000     0          
T        Si     0.974100000000     0.195166666667     0.250000000000     0          
T        Si     0.667800000000     0.249166666667     0.000000000000     0          
T        Si     0.862500000000     0.305800000000     0.086200000000     0          
T        Si     0.913733333333     0.332500000000     0.172650000000     0          
T        Si     0.887733333333     0.025900000000     0.250000000000     0          
T        Si     0.914700000000     0.332200000000     0.000000000000     0          
T        Si     0.776633333333     0.137500000000     0.413800000000     0          
T        Si     0.752100000000     0.086266666667     0.327350000000     0          
T        Si     0.804833333333     0.112266666667     0.250000000000     0          
T        Si     0.750833333333     0.085300000000     0.000000000000     0          
T        Si     0.694200000000     0.223366666667     0.086200000000     0          
T        Si     0.667500000000     0.247900000000     0.172650000000     0          
T        Si     0.862500000000     0.305800000000     0.413800000000     0          
T        Si     0.913733333333     0.332500000000     0.327350000000     0          
T        Si     0.776633333333     0.137500000000     0.086200000000     0          
T        Si     0.752100000000     0.086266666667     0.172650000000     0          
T        Si     0.776633333333     0.305800000000     0.586200000000     0          
T        Si     0.752100000000     0.332500000000     0.672650000000     0          
T        Si     0.804833333333     0.025900000000     0.750000000000     0          
T        Si     0.750833333333     0.332200000000     0.500000000000     0          
T        Si     0.862500000000     0.223366666667     0.913800000000     0          
T        Si     0.913733333333     0.247900000000     0.827350000000     0          
T        Si     0.887733333333     0.195166666667     0.750000000000     0          
T        Si     0.914700000000     0.249166666667     0.500000000000     0          
T        Si     0.694200000000     0.137500000000     0.586200000000     0          
T        Si     0.667500000000     0.086266666667     0.672650000000     0          
T        Si     0.974100000000     0.112266666667     0.750000000000     0          
T        Si     0.667800000000     0.085300000000     0.500000000000     0          
T        Si     0.776633333333     0.305800000000     0.913800000000     0          
T        Si     0.752100000000     0.332500000000     0.827350000000     0          
T        Si     0.862500000000     0.223366666667     0.586200000000     0          
T        Si     0.913733333333     0.247900000000     0.672650000000     0          
T        Si     0.694200000000     0.137500000000     0.913800000000     0          
T        Si     0.667500000000     0.086266666667     0.827350000000     0          
T        Si     0.694200000000     0.223366666667     0.913800000000     0          
T        Si     0.667500000000     0.247900000000     0.827350000000     0          
T        Si     0.974100000000     0.195166666667     0.750000000000     0          
T        Si     0.667800000000     0.249166666667     0.500000000000     0          
T        Si     0.862500000000     0.305800000000     0.586200000000     0          
T        Si     0.913733333333     0.332500000000     0.672650000000     0          
T        Si     0.887733333333     0.025900000000     0.750000000000     0          
T        Si     0.914700000000     0.332200000000     0.500000000000     0          
T        Si     0.776633333333     0.137500000000     0.913800000000     0          
T        Si     0.752100000000     0.086266666667     0.827350000000     0          
T        Si     0.804833333333     0.112266666667     0.750000000000     0          
T        Si     0.750833333333     0.085300000000     0.500000000000     0          
T        Si     0.694200000000     0.223366666667     0.586200000000     0          
T        Si     0.667500000000     0.247900000000     0.672650000000     0          
T        Si     0.862500000000     0.305800000000     0.913800000000     0          
T        Si     0.913733333333     0.332500000000     0.827350000000     0          
T        Si     0.776633333333     0.137500000000     0.586200000000     0          
T        Si     0.752100000000     0.086266666667     0.672650000000     0          
T        Si     0.776633333333     0.639133333333     0.086200000000     0          
T        Si     0.752100000000     0.665833333333     0.172650000000     0          
T        Si     0.804833333333     0.359233333333     0.250000000000     0          
T        Si     0.750833333333     0.665533333333     0.000000000000     0          
T        Si     0.862500000000     0.556700000000     0.413800000000     0          
T        Si     0.913733333333     0.581233333333     0.327350000000     0          
T        Si     0.887733333333     0.528500000000     0.250000000000     0          
T        Si     0.914700000000     0.582500000000     0.000000000000     0          
T        Si     0.694200000000     0.470833333333     0.086200000000     0          
T        Si     0.667500000000     0.419600000000     0.172650000000     0          
T        Si     0.974100000000     0.445600000000     0.250000000000     0          
T        Si     0.667800000000     0.418633333333     0.000000000000     0          
T        Si     0.776633333333     0.639133333333     0.413800000000     0          
T        Si     0.752100000000     0.665833333333     0.327350000000     0          
T        Si     0.862500000000     0.556700000000     0.086200000000     0          
T        Si     0.913733333333     0.581233333333     0.172650000000     0          
T        Si     0.694200000000     0.470833333333     0.413800000000     0          
T        Si     0.667500000000     0.419600000000     0.327350000000     0          
T        Si     0.694200000000     0.556700000000     0.413800000000     0          
T        Si     0.667500000000     0.581233333333     0.327350000000     0          
T        Si     0.974100000000     0.528500000000     0.250000000000     0          
T        Si     0.667800000000     0.582500000000     0.000000000000     0          
T        Si     0.862500000000     0.639133333333     0.086200000000     0          
T        Si     0.913733333333     0.665833333333     0.172650000000     0          
T        Si     0.887733333333     0.359233333333     0.250000000000     0          
T        Si     0.914700000000     0.665533333333     0.000000000000     0          
T        Si     0.776633333333     0.470833333333     0.413800000000     0          
T        Si     0.752100000000     0.419600000000     0.327350000000     0          
T        Si     0.804833333333     0.445600000000     0.250000000000     0          
T        Si     0.750833333333     0.418633333333     0.000000000000     0          
T        Si     0.694200000000     0.556700000000     0.086200000000     0          
T        Si     0.667500000000     0.581233333333     0.172650000000     0          
T        Si     0.862500000000     0.639133333333     0.413800000000     0          
T        Si     0.913733333333     0.665833333333     0.327350000000     0          
T        Si     0.776633333333     0.470833333333     0.086200000000     0          
T        Si     0.752100000000     0.419600000000     0.172650000000     0          
T        Si     0.776633333333     0.639133333333     0.586200000000     0          
T        Si     0.752100000000     0.665833333333     0.672650000000     0          
T        Si     0.804833333333     0.359233333333     0.750000000000     0          
T        Si     0.750833333333     0.665533333333     0.500000000000     0          
T        Si     0.862500000000     0.556700000000     0.913800000000     0          
T        Si     0.913733333333     0.581233333333     0.827350000000     0          
T        Si     0.887733333333     0.528500000000     0.750000000000     0          
T        Si     0.914700000000     0.582500000000     0.500000000000     0          
T        Si     0.694200000000     0.470833333333     0.586200000000     0          
T        Si     0.667500000000     0.419600000000     0.672650000000     0          
T        Si     0.974100000000     0.445600000000     0.750000000000     0          
T        Si     0.667800000000     0.418633333333     0.500000000000     0          
T        Si     0.776633333333     0.639133333333     0.913800000000     0          
T        Si     0.752100000000     0.665833333333     0.827350000000     0          
T        Si     0.862500000000     0.556700000000     0.586200000000     0          
T        Si     0.913733333333     0.581233333333     0.672650000000     0          
T        Si     0.694200000000     0.470833333333     0.913800000000     0          
T        Si     0.667500000000     0.419600000000     0.827350000000     0          
T        Si     0.694200000000     0.556700000000     0.913800000000     0          
T        Si     0.667500000000     0.581233333333     0.827350000000     0          
T        Si     0.974100000000     0.528500000000     0.750000000000     0          
T        Si     0.667800000000     0.582500000000     0.500000000000     0          
T        Si     0.862500000000     0.639133333333     0.586200000000     0          
T        Si     0.913733333333     0.665833333333     0.672650000000     0          
T        Si     0.887733333333     0.359233333333     0.750000000000     0          
T        Si     0.914700000000     0.665533333333     0.500000000000     0          
T        Si     0.776633333333     0.470833333333     0.913800000000     0          
T        Si     0.752100000000     0.419600000000     0.827350000000     0          
T        Si     0.804833333333     0.445600000000     0.750000000000     0          
T        Si     0.750833333333     0.418633333333     0.500000000000     0          
T        Si     0.694200000000     0.556700000000     0.586200000000     0          
T        Si     0.667500000000     0.581233333333     0.672650000000     0          
T        Si     0.862500000000     0.639133333333     0.913800000000     0          
T        Si     0.913733333333     0.665833333333     0.827350000000     0          
T        Si     0.776633333333     0.470833333333     0.586200000000     0          
T        Si     0.752100000000     0.419600000000     0.672650000000     0          
T        Si     0.776633333333     0.972466666667     0.086200000000     0          
T        Si     0.752100000000     0.999166666667     0.172650000000     0          
T        Si     0.804833333333     0.692566666667     0.250000000000     0          
T        Si     0.750833333333     0.998866666667     0.000000000000     0          
T        Si     0.862500000000     0.890033333333     0.413800000000     0          
T        Si     0.913733333333     0.914566666667     0.327350000000     0          
T        Si     0.887733333333     0.861833333333     0.250000000000     0          
T        Si     0.914700000000     0.915833333333     0.000000000000     0          
T        Si     0.694200000000     0.804166666667     0.086200000000     0          
T        Si     0.667500000000     0.752933333333     0.172650000000     0          
T        Si     0.974100000000     0.778933333333     0.250000000000     0          
T        Si     0.667800000000     0.751966666667     0.000000000000     0          
T        Si     0.776633333333     0.972466666667     0.413800000000     0          
T        Si     0.752100000000     0.999166666667     0.327350000000     0          
T        Si     0.862500000000     0.890033333333     0.086200000000     0          
T        Si     0.913733333333     0.914566666667     0.172650000000     0          
T        Si     0.694200000000     0.804166666667     0.413800000000     0          
T        Si     0.667500000000     0.752933333333     0.327350000000     0          
T        Si     0.694200000000     0.890033333333     0.413800000000     0          
T        Si     0.667500000000     0.914566666667     0.327350000000     0          
T        Si     0.974100000000     0.861833333333     0.250000000000     0          
T        Si     0.667800000000     0.915833333333     0.000000000000     0          
T        Si     0.862500000000     0.972466666667     0.086200000000     0          
T        Si     0.913733333333     0.999166666667     0.172650000000     0          
T        Si     0.887733333333     0.692566666667     0.250000000000     0          
T        Si     0.914700000000     0.998866666667     0.000000000000     0          
T        Si     0.776633333333     0.804166666667     0.413800000000     0          
T        Si     0.752100000000     0.752933333333     0.327350000000     0          
T        Si     0.804833333333     0.778933333333     0.250000000000     0          
T        Si     0.750833333333     0.751966666667     0.000000000000     0          
T        Si     0.694200000000     0.890033333333     0.086200000000     0          
T        Si     0.667500000000     0.914566666667     0.172650000000     0          
T        Si     0.862500000000     0.972466666667     0.413800000000     0          
T        Si     0.913733333333     0.999166666667     0.327350000000     0          
T        Si     0.776633333333     0.804166666667     0.086200000000     0          
T        Si     0.752100000000     0.752933333333     0.172650000000     0          
T        Si     0.776633333333     0.972466666667     0.586200000000     0          
T        Si     0.752100000000     0.999166666667     0.672650000000     0          
T        Si     0.804833333333     0.692566666667     0.750000000000     0          
T        Si     0.750833333333     0.998866666667     0.500000000000     0          
T        Si     0.862500000000     0.890033333333     0.913800000000     0          
T        Si     0.913733333333     0.914566666667     0.827350000000     0          
T        Si     0.887733333333     0.861833333333     0.750000000000     0          
T        Si     0.914700000000     0.915833333333     0.500000000000     0          
T        Si     0.694200000000     0.804166666667     0.586200000000     0          
T        Si     0.667500000000     0.752933333333     0.672650000000     0          
T        Si     0.974100000000     0.778933333333     0.750000000000     0          
T        Si     0.667800000000     0.751966666667     0.500000000000     0          
T        Si     0.776633333333     0.972466666667     0.913800000000     0          
T        Si     0.752100000000     0.999166666667     0.827350000000     0          
T        Si     0.862500000000     0.890033333333     0.586200000000     0          
T        Si     0.913733333333     0.914566666667     0.672650000000     0          
T        Si     0.694200000000     0.804166666667     0.913800000000     0          
T        Si     0.667500000000     0.752933333333     0.827350000000     0          
T        Si     0.694200000000     0.890033333333     0.913800000000     0          
T        Si     0.667500000000     0.914566666667     0.827350000000     0          
T        Si     0.974100000000     0.861833333333     0.750000000000     0          
T        Si     0.667800000000     0.915833333333     0.500000000000     0          
T        Si     0.862500000000     0.972466666667     0.586200000000     0          
T        Si     0.913733333333     0.999166666667     0.672650000000     0          
T        Si     0.887733333333     0.692566666667     0.750000000000     0          
T        Si     0.914700000000     0.998866666667     0.500000000000     0          
T        Si     0.776633333333     0.804166666667     0.913800000000     0          
T        Si     0.752100000000     0.752933333333     0.827350000000     0          
T        Si     0.804833333333     0.778933333333     0.750000000000     0          
T        Si     0.750833333333     0.751966666667     0.500000000000     0          
T        Si     0.694200000000     0.890033333333     0.586200000000     0          
T        Si     0.667500000000     0.914566666667     0.672650000000     0          
T        Si     0.862500000000     0.972466666667     0.913800000000     0          
T        Si     0.913733333333     0.999166666667     0.827350000000     0          
T        Si     0.776633333333     0.804166666667     0.586200000000     0          
T        Si     0.752100000000     0.752933333333     0.672650000000     0          
O        O      0.105533333333     0.325666666667     0.042000000000     0          
O        O      0.077133333333     0.256200000000     0.086600000000     0          
O        O      0.100133333333     0.327666666667     0.125600000000     0          
O        O      0.156933333333     0.313866666667     0.090650000000     0          
O        O      0.086266666667     0.043133333333     0.176050000000     0          
O        O      0.038600000000     0.294733333333     0.181600000000     0          
O        O      0.116766666667     0.331366666667     0.207950000000     0          
O        O      0.130966666667     0.065466666667     0.250000000000     0          
O        O      0.187566666667     0.041833333333     0.250000000000     0          
O        O      0.091200000000     0.045600000000     0.000000000000     0          
O        O      0.034766666667     0.298566666667     0.000000000000     0          
O        O      0.220133333333     0.227800000000     0.458000000000     0          
O        O      0.179066666667     0.256200000000     0.413400000000     0          
O        O      0.227533333333     0.233200000000     0.374400000000     0          
O        O      0.156933333333     0.176400000000     0.409350000000     0          
O        O      0.290200000000     0.247066666667     0.323950000000     0          
O        O      0.256133333333     0.294733333333     0.318400000000     0          
O        O      0.214600000000     0.216566666667     0.292050000000     0          
O        O      0.267833333333     0.202366666667     0.250000000000     0          
O        O      0.187600000000     0.145766666667     0.250000000000     0          
O        O      0.287733333333     0.242133333333     0.000000000000     0          
O        O      0.263800000000     0.298566666667     0.000000000000     0          
O        O      0.007666666667     0.113200000000     0.042000000000     0          
O        O      0.077133333333     0.154266666667     0.086600000000     0          
O        O      0.005666666667     0.105800000000     0.125600000000     0          
O        O      0.019466666667     0.176400000000     0.090650000000     0          
O        O      0.290200000000     0.043133333333     0.176050000000     0          
O        O      0.038600000000     0.077200000000     0.181600000000     0          
O        O      0.001966666667     0.118733333333     0.207950000000     0          
O        O      0.267866666667     0.065500000000     0.250000000000     0          
O        O      0.291500000000     0.145733333333     0.250000000000     0          
O        O      0.287733333333     0.045600000000     0.000000000000     0          
O        O      0.034766666667     0.069533333333     0.000000000000     0          
O        O      0.105533333333     0.325666666667     0.458000000000     0          
O        O      0.077133333333     0.256200000000     0.413400000000     0          
O        O      0.100133333333     0.327666666667     0.374400000000     0          
O        O      0.156933333333     0.313866666667     0.409350000000     0          
O        O      0.086266666667     0.043133333333     0.323950000000     0          
O        O      0.038600000000     0.294733333333     0.318400000000     0          
O        O      0.116766666667     0.331366666667     0.292050000000     0          
O        O      0.220133333333     0.227800000000     0.042000000000     0          
O        O      0.179066666667     0.256200000000     0.086600000000     0          
O        O      0.227533333333     0.233200000000     0.125600000000     0          
O        O      0.156933333333     0.176400000000     0.090650000000     0          
O        O      0.290200000000     0.247066666667     0.176050000000     0          
O        O      0.256133333333     0.294733333333     0.181600000000     0          
O        O      0.214600000000     0.216566666667     0.207950000000     0          
O        O      0.007666666667     0.113200000000     0.458000000000     0          
O        O      0.077133333333     0.154266666667     0.413400000000     0          
O        O      0.005666666667     0.105800000000     0.374400000000     0          
O        O      0.019466666667     0.176400000000     0.409350000000     0          
O        O      0.290200000000     0.043133333333     0.323950000000     0          
O        O      0.038600000000     0.077200000000     0.318400000000     0          
O        O      0.001966666667     0.118733333333     0.292050000000     0          
O        O      0.007666666667     0.227800000000     0.458000000000     0          
O        O      0.005666666667     0.233200000000     0.374400000000     0          
O        O      0.001966666667     0.216566666667     0.292050000000     0          
O        O      0.220133333333     0.325666666667     0.042000000000     0          
O        O      0.227533333333     0.327666666667     0.125600000000     0          
O        O      0.214600000000     0.331366666667     0.207950000000     0          
O        O      0.105533333333     0.113200000000     0.458000000000     0          
O        O      0.100133333333     0.105800000000     0.374400000000     0          
O        O      0.116766666667     0.118733333333     0.292050000000     0          
O        O      0.007666666667     0.227800000000     0.042000000000     0          
O        O      0.005666666667     0.233200000000     0.125600000000     0          
O        O      0.001966666667     0.216566666667     0.207950000000     0          
O        O      0.220133333333     0.325666666667     0.458000000000     0          
O        O      0.227533333333     0.327666666667     0.374400000000     0          
O        O      0.214600000000     0.331366666667     0.292050000000     0          
O        O      0.105533333333     0.113200000000     0.042000000000     0          
O        O      0.100133333333     0.105800000000     0.125600000000     0          
O        O      0.116766666667     0.118733333333     0.207950000000     0          
O        O      0.105533333333     0.325666666667     0.542000000000     0          
O        O      0.077133333333     0.256200000000     0.586600000000     0          
O        O      0.100133333333     0.327666666667     0.625600000000     0          
O        O      0.156933333333     0.313866666667     0.590650000000     0          
O        O      0.086266666667     0.043133333333     0.676050000000     0          
O        O      0.038600000000     0.294733333333     0.681600000000     0          
O        O      0.116766666667     0.331366666667     0.707950000000     0          
O        O      0.130966666667     0.065466666667     0.750000000000     0          
O        O      0.187566666667     0.041833333333     0.750000000000     0          
O        O      0.091200000000     0.045600000000     0.500000000000     0          
O        O      0.034766666667     0.298566666667     0.500000000000     0          
O        O      0.220133333333     0.227800000000     0.958000000000     0          
O        O      0.179066666667     0.256200000000     0.913400000000     0          
O        O      0.227533333333     0.233200000000     0.874400000000     0          
O        O      0.156933333333     0.176400000000     0.909350000000     0          
O        O      0.290200000000     0.247066666667     0.823950000000     0          
O        O      0.256133333333     0.294733333333     0.818400000000     0          
O        O      0.214600000000     0.216566666667     0.792050000000     0          
O        O      0.267833333333     0.202366666667     0.750000000000     0          
O        O      0.187600000000     0.145766666667     0.750000000000     0          
O        O      0.287733333333     0.242133333333     0.500000000000     0          
O        O      0.263800000000     0.298566666667     0.500000000000     0          
O        O      0.007666666667     0.113200000000     0.542000000000     0          
O        O      0.077133333333     0.154266666667     0.586600000000     0          
O        O      0.005666666667     0.105800000000     0.625600000000     0          
O        O      0.019466666667     0.176400000000     0.590650000000     0          
O        O      0.290200000000     0.043133333333     0.676050000000     0          
O        O      0.038600000000     0.077200000000     0.681600000000     0          
O        O      0.001966666667     0.118733333333     0.707950000000     0          
O        O      0.267866666667     0.065500000000     0.750000000000     0          
O        O      0.291500000000     0.145733333333     0.750000000000     0          
O        O      0.287733333333     0.045600000000     0.500000000000     0          
O        O      0.034766666667     0.069533333333     0.500000000000     0          
O        O      0.105533333333     0.325666666667     0.958000000000     0          
O        O      0.077133333333     0.256200000000     0.913400000000     0          
O        O      0.100133333333     0.327666666667     0.874400000000     0          
O        O      0.156933333333     0.313866666667     0.909350000000     0          
O        O      0.086266666667     0.043133333333     0.823950000000     0          
O        O      0.038600000000     0.294733333333     0.818400000000     0          
O        O      0.116766666667     0.331366666667     0.792050000000     0          
O        O      0.220133333333     0.227800000000     0.542000000000     0          
O        O      0.179066666667     0.256200000000     0.586600000000     0          
O        O      0.227533333333     0.233200000000     0.625600000000     0          
O        O      0.156933333333     0.176400000000     0.590650000000     0          
O        O      0.290200000000     0.247066666667     0.676050000000     0          
O        O      0.256133333333     0.294733333333     0.681600000000     0          
O        O      0.214600000000     0.216566666667     0.707950000000     0          
O        O      0.007666666667     0.113200000000     0.958000000000     0          
O        O      0.077133333333     0.154266666667     0.913400000000     0          
O        O      0.005666666667     0.105800000000     0.874400000000     0          
O        O      0.019466666667     0.176400000000     0.909350000000     0          
O        O      0.290200000000     0.043133333333     0.823950000000     0          
O        O      0.038600000000     0.077200000000     0.818400000000     0          
O        O      0.001966666667     0.118733333333     0.792050000000     0          
O        O      0.007666666667     0.227800000000     0.958000000000     0          
O        O      0.005666666667     0.233200000000     0.874400000000     0          
O        O      0.001966666667     0.216566666667     0.792050000000     0          
O        O      0.220133333333     0.325666666667     0.542000000000     0          
O        O      0.227533333333     0.327666666667     0.625600000000     0          
O        O      0.214600000000     0.331366666667     0.707950000000     0          
O        O      0.105533333333     0.113200000000     0.958000000000     0          
O        O      0.100133333333     0.105800000000     0.874400000000     0          
O        O      0.116766666667     0.118733333333     0.792050000000     0          
O        O      0.007666666667     0.227800000000     0.542000000000     0          
O        O      0.005666666667     0.233200000000     0.625600000000     0          
O        O      0.001966666667     0.216566666667     0.707950000000     0          
O        O      0.220133333333     0.325666666667     0.958000000000     0          
O        O      0.227533333333     0.327666666667     0.874400000000     0          
O        O      0.214600000000     0.331366666667     0.792050000000     0          
O        O      0.105533333333     0.113200000000     0.542000000000     0          
O        O      0.100133333333     0.105800000000     0.625600000000     0          
O        O      0.116766666667     0.118733333333     0.707950000000     0          
O        O      0.105533333333     0.659000000000     0.042000000000     0          
O        O      0.077133333333     0.589533333333     0.086600000000     0          
O        O      0.100133333333     0.661000000000     0.125600000000     0          
O        O      0.156933333333     0.647200000000     0.090650000000     0          
O        O      0.086266666667     0.376466666667     0.176050000000     0          
O        O      0.038600000000     0.628066666667     0.181600000000     0          
O        O      0.116766666667     0.664700000000     0.207950000000     0          
O        O      0.130966666667     0.398800000000     0.250000000000     0          
O        O      0.187566666667     0.375166666667     0.250000000000     0          
O        O      0.091200000000     0.378933333333     0.000000000000     0          
O        O      0.034766666667     0.631900000000     0.000000000000     0          
O        O      0.220133333333     0.561133333333     0.458000000000     0          
O        O      0.179066666667     0.589533333333     0.413400000000     0          
O        O      0.227533333333     0.566533333333     0.374400000000     0          
O        O      0.156933333333     0.509733333333     0.409350000000     0          
O        O      0.290200000000     0.580400000000     0.323950000000     0          
O        O      0.256133333333     0.628066666667     0.318400000000     0          
O        O      0.214600000000     0.549900000000     0.292050000000     0          
O        O      0.267833333333     0.535700000000     0.250000000000     0          
O        O      0.187600000000     0.479100000000     0.250000000000     0          
O        O      0.287733333333     0.575466666667     0.000000000000     0          
O        O      0.263800000000     0.631900000000     0.000000000000     0          
O        O      0.007666666667     0.446533333333     0.042000000000     0          
O        O      0.077133333333     0.487600000000     0.086600000000     0          
O        O      0.005666666667     0.439133333333     0.125600000000     0          
O        O      0.019466666667     0.509733333333     0.090650000000     0          
O        O      0.290200000000     0.376466666667     0.176050000000     0          
O        O      0.038600000000     0.410533333333     0.181600000000     0          
O        O      0.001966666667     0.452066666667     0.207950000000     0          
O        O      0.267866666667     0.398833333333     0.250000000000     0          
O        O      0.291500000000     0.479066666667     0.250000000000     0          
O        O      0.287733333333     0.378933333333     0.000000000000     0          
O        O      0.034766666667     0.402866666667     0.000000000000     0          
O        O      0.105533333333     0.659000000000     0.458000000000     0          
O        O      0.077133333333     0.589533333333     0.413400000000     0          
O        O      0.100133333333     0.661000000000     0.374400000000     0          
O        O      0.156933333333     0.647200000000     0.409350000000     0          
O        O      0.086266666667     0.376466666667     0.323950000000     0          
O        O      0.038600000000     0.628066666667     0.318400000000     0          
O        O      0.116766666667     0.664700000000     0.292050000000     0          
O        O      0.220133333333     0.561133333333     0.042000000000     0          
O        O      0.179066666667     0.589533333333     0.086600000000     0          
O        O      0.227533333333     0.566533333333     0.125600000000     0          
O        O      0.156933333333     0.509733333333     0.090650000000     0          
O        O      0.290200000000     0.580400000000     0.176050000000     0          
O        O      0.256133333333     0.628066666667     0.181600000000     0          
O        O      0.214600000000     0.549900000000     0.207950000000     0          
O        O      0.007666666667     0.446533333333     0.458000000000     0          
O        O      0.077133333333     0.487600000000     0.413400000000     0          
O        O      0.005666666667     0.439133333333     0.374400000000     0          
O        O      0.019466666667     0.509733333333     0.409350000000     0          
O        O      0.290200000000     0.376466666667     0.323950000000     0          
O        O      0.038600000000     0.410533333333     0.318400000000     0          
O        O      0.001966666667     0.452066666667     0.292050000000     0          
O        O      0.007666666667     0.561133333333     0.458000000000     0          
O        O      0.005666666667     0.566533333333     0.374400000000     0          
O        O      0.001966666667     0.549900000000     0.292050000000     0          
O        O      0.220133333333     0.659000000000     0.042000000000     0          
O        O      0.227533333333     0.661000000000     0.125600000000     0          
O        O      0.214600000000     0.664700000000     0.207950000000     0          
O        O      0.105533333333     0.446533333333     0.458000000000     0          
O        O      0.100133333333     0.439133333333     0.374400000000     0          
O        O      0.116766666667     0.452066666667     0.292050000000     0          
O        O      0.007666666667     0.561133333333     0.042000000000     0          
O        O      0.005666666667     0.566533333333     0.125600000000     0          
O        O      0.001966666667     0.549900000000     0.207950000000     0          
O        O      0.220133333333     0.659000000000     0.458000000000     0          
O        O      0.227533333333     0.661000000000     0.374400000000     0          
O        O      0.214600000000     0.664700000000     0.292050000000     0          
O        O      0.105533333333     0.446533333333     0.042000000000     0          
O        O      0.100133333333     0.439133333333     0.125600000000     0          
O        O      0.116766666667     0.452066666667     0.207950000000     0          
O        O      0.105533333333     0.659000000000     0.542000000000     0          
O        O      0.077133333333     0.589533333333     0.586600000000     0          
O        O      0.100133333333     0.661000000000     0.625600000000     0          
O        O      0.156933333333     0.647200000000     0.590650000000     0          
O        O      0.086266666667     0.376466666667     0.676050000000     0          
O        O      0.038600000000     0.628066666667     0.681600000000     0          
O        O      0.116766666667     0.664700000000     0.707950000000     0          
O        O      0.130966666667     0.398800000000     0.750000000000     0          
O        O      0.187566666667     0.375166666667     0.750000000000     0          
O        O      0.091200000000     0.378933333333     0.500000000000     0          
O        O      0.034766666667     0.631900000000     0.500000000000     0          
O        O      0.220133333333     0.561133333333     0.958000000000     0          
O        O      0.179066666667     0.589533333333     0.913400000000     0          
O        O      0.227533333333     0.566533333333     0.874400000000     0          
O        O      0.156933333333     0.509733333333     0.909350000000     0          
O        O      0.290200000000     0.580400000000     0.823950000000     0          
O        O      0.256133333333     0.628066666667     0.818400000000     0          
O        O      0.214600000000     0.549900000000     0.792050000000     0          
O        O      0.267833333333     0.535700000000     0.750000000000     0          
O        O      0.187600000000     0.479100000000     0.750000000000     0          
O        O      0.287733333333     0.575466666667     0.500000000000     0          
O        O      0.263800000000     0.631900000000     0.500000000000     0          
O        O      0.007666666667     0.446533333333     0.542000000000     0          
O        O      0.077133333333     0.487600000000     0.586600000000     0          
O        O      0.005666666667     0.439133333333     0.625600000000     0          
O        O      0.019466666667     0.509733333333     0.590650000000     0          
O        O      0.290200000000     0.376466666667     0.676050000000     0          
O        O      0.038600000000     0.410533333333     0.681600000000     0          
O        O      0.001966666667     0.452066666667     0.707950000000     0          
O        O      0.267866666667     0.398833333333     0.750000000000     0          
O        O      0.291500000000     0.479066666667     0.750000000000     0          
O        O      0.287733333333     0.378933333333     0.500000000000     0          
O        O      0.034766666667     0.402866666667     0.500000000000     0          
O        O      0.105533333333     0.659000000000     0.958000000000     0          
O        O      0.077133333333     0.589533333333     0.913400000000     0          
O        O      0.100133333333     0.661000000000     0.874400000000     0          
O        O      0.156933333333     0.647200000000     0.909350000000     0          
O        O      0.086266666667     0.376466666667     0.823950000000     0          
O        O      0.038600000000     0.628066666667     0.818400000000     0          
O        O      0.116766666667     0.664700000000     0.792050000000     0          
O        O      0.220133333333     0.561133333333     0.542000000000     0          
O        O      0.179066666667     0.589533333333     0.586600000000     0          
O        O      0.227533333333     0.566533333333     0.625600000000     0          
O        O      0.156933333333     0.509733333333     0.590650000000     0          
O        O      0.290200000000     0.580400000000     0.676050000000     0          
O        O      0.256133333333     0.628066666667     0.681600000000     0          
O        O      0.214600000000     0.549900000000     0.707950000000     0          
O        O      0.007666666667     0.446533333333     0.958000000000     0          
O        O      0.077133333333     0.487600000000     0.913400000000     0          
O        O      0.005666666667     0.439133333333     0.874400000000     0          
O        O      0.019466666667     0.509733333333     0.909350000000     0          
O        O      0.290200000000     0.376466666667     0.823950000000     0          
O        O      0.038600000000     0.410533333333     0.818400000000     0          
O        O      0.001966666667     0.452066666667     0.792050000000     0          
O        O      0.007666666667     0.561133333333     0.958000000000     0          
O        O      0.005666666667     0.566533333333     0.874400000000     0          
O        O      0.001966666667     0.549900000000     0.792050000000     0          
O        O      0.220133333333     0.659000000000     0.542000000000     0          
O        O      0.227533333333     0.661000000000     0.625600000000     0          
O        O      0.214600000000     0.664700000000     0.707950000000     0          
O        O      0.105533333333     0.446533333333     0.958000000000     0          
O        O      0.100133333333     0.439133333333     0.874400000000     0          
O        O      0.116766666667     0.452066666667     0.792050000000     0          
O        O      0.007666666667     0.561133333333     0.542000000000     0          
O        O      0.005666666667     0.566533333333     0.625600000000     0          
O        O      0.001966666667     0.549900000000     0.707950000000     0          
O        O      0.220133333333     0.659000000000     0.958000000000     0          
O        O      0.227533333333     0.661000000000     0.874400000000     0          
O        O      0.214600000000     0.664700000000     0.792050000000     0          
O        O      0.105533333333     0.446533333333     0.542000000000     0          
O        O      0.100133333333     0.439133333333     0.625600000000     0          
O        O      0.116766666667     0.452066666667     0.707950000000     0          
O        O      0.105533333333     0.992333333333     0.042000000000     0          
O        O      0.077133333333     0.922866666667     0.086600000000     0          
O        O      0.100133333333     0.994333333333     0.125600000000     0          
O        O      0.156933333333     0.980533333333     0.090650000000     0          
O        O      0.086266666667     0.709800000000     0.176050000000     0          
O        O      0.038600000000     0.961400000000     0.181600000000     0          
O        O      0.116766666667     0.998033333333     0.207950000000     0          
O        O      0.130966666667     0.732133333333     0.250000000000     0          
O        O      0.187566666667     0.708500000000     0.250000000000     0          
O        O      0.091200000000     0.712266666667     0.000000000000     0          
O        O      0.034766666667     0.965233333333     0.000000000000     0          
O        O      0.220133333333     0.894466666667     0.458000000000     0          
O        O      0.179066666667     0.922866666667     0.413400000000     0          
O        O      0.227533333333     0.899866666667     0.374400000000     0          
O        O      0.156933333333     0.843066666667     0.409350000000     0          
O        O      0.290200000000     0.913733333333     0.323950000000     0          
O        O      0.256133333333     0.961400000000     0.318400000000     0          
O        O      0.214600000000     0.883233333333     0.292050000000     0          
O        O      0.267833333333     0.869033333333     0.250000000000     0          
O        O      0.187600000000     0.812433333333     0.250000000000     0          
O        O      0.287733333333     0.908800000000     0.000000000000     0          
O        O      0.263800000000     0.965233333333     0.000000000000     0          
O        O      0.007666666667     0.779866666667     0.042000000000     0          
O        O      0.077133333333     0.820933333333     0.086600000000     0          
O        O      0.005666666667     0.772466666667     0.125600000000     0          
O        O      0.019466666667     0.843066666667     0.090650000000     0          
O        O      0.290200000000     0.709800000000     0.176050000000     0          
O        O      0.038600000000     0.743866666667     0.181600000000     0          
O        O      0.001966666667     0.785400000000     0.207950000000     0          
O        O      0.267866666667     0.732166666667     0.250000000000     0          
O        O      0.291500000000     0.812400000000     0.250000000000     0          
O        O      0.287733333333     0.712266666667     0.000000000000     0          
O        O      0.034766666667     0.736200000000     0.000000000000     0          
O        O      0.105533333333     0.992333333333     0.458000000000     0          
O        O      0.077133333333     0.922866666667     0.413400000000     0          
O        O      0.100133333333     0.994333333333     0.374400000000     0          
O        O      0.156933333333     0.980533333333     0.409350000000     0          
O        O      0.086266666667     0.709800000000     0.323950000000     0          
O        O      0.038600000000     0.961400000000     0.318400000000     0          
O        O      0.116766666667     0.998033333333     0.292050000000     0          
O        O      0.220133333333     0.894466666667     0.042000000000     0          
O        O      0.179066666667     0.922866666667     0.086600000000     0          
O        O      0.227533333333     0.899866666667     0.125600000000     0          
O        O      0.156933333333     0.843066666667     0.090650000000     0          
O        O      0.290200000000     0.913733333333     0.176050000000     0          
O        O      0.256133333333     0.961400000000     0.181600000000     0          
O        O      0.214600000000     0.883233333333     0.207950000000     0          
O        O      0.007666666667     0.779866666667     0.458000000000     0          
O        O      0.077133333333     0.820933333333     0.413400000000     0          
O        O      0.005666666667     0.772466666667     0.374400000000     0          
O        O      0.019466666667     0.843066666667     0.409350000000     0          
O        O      0.290200000000     0.709800000000     0.323950000000     0          
O        O      0.038600000000     0.743866666667     0.318400000000     0          
O        O      0.001966666667     0.785400000000     0.292050000000     0          
O        O      0.007666666667     0.894466666667     0.458000000000     0          
O        O      0.005666666667     0.899866666667     0.374400000000     0          
O        O      0.001966666667     0.883233333333     0.292050000000     0          
O        O      0.220133333333     0.992333333333     0.042000000000     0          
O        O      0.227533333333     0.994333333333     0.125600000000     0          
O        O      0.214600000000     0.998033333333     0.207950000000     0          
O        O      0.105533333333     0.779866666667     0.458000000000     0          
O        O      0.100133333333     0.772466666667     0.374400000000     0          
O        O      0.116766666667     0.785400000000     0.292050000000     0          
O        O      0.007666666667     0.894466666667     0.042000000000     0          
O        O      0.005666666667     0.899866666667     0.125600000000     0          
O        O      0.001966666667     0.883233333333     0.207950000000     0          
O        O      0.220133333333     0.992333333333     0.458000000000     0          
O        O      0.227533333333     0.994333333333     0.374400000000     0          
O        O      0.214600000000     0.998033333333     0.292050000000     0          
O        O      0.105533333333     0.779866666667     0.042000000000     0          
O        O      0.100133333333     0.772466666667     0.125600000000     0          
O        O      0.116766666667     0.785400000000     0.207950000000     0          
O        O      0.105533333333     0.992333333333     0.542000000000     0          
O        O      0.077133333333     0.922866666667     0.586600000000     0          
O        O      0.100133333333     0.994333333333     0.625600000000     0          
O        O      0.156933333333     0.980533333333     0.590650000000     0          
O        O      0.086266666667     0.709800000000     0.676050000000     0          
O        O      0.038600000000     0.961400000000     0.681600000000     0          
O        O      0.116766666667     0.998033333333     0.707950000000     0          
O        O      0.130966666667     0.732133333333     0.750000000000     0          
O        O      0.187566666667     0.708500000000     0.750000000000     0          
O        O      0.091200000000     0.712266666667     0.500000000000     0          
O        O      0.034766666667     0.965233333333     0.500000000000     0          
O        O      0.220133333333     0.894466666667     0.958000000000     0          
O        O      0.179066666667     0.922866666667     0.913400000000     0          
O        O      0.227533333333     0.899866666667     0.874400000000     0          
O        O      0.156933333333     0.843066666667     0.909350000000     0          
O        O      0.290200000000     0.913733333333     0.823950000000     0          
O        O      0.256133333333     0.961400000000     0.818400000000     0          
O        O      0.214600000000     0.883233333333     0.792050000000     0          
O        O      0.267833333333     0.869033333333     0.750000000000     0          
O        O      0.187600000000     0.812433333333     0.750000000000     0          
O        O      0.287733333333     0.908800000000     0.500000000000     0          
O        O      0.263800000000     0.965233333333     0.500000000000     0          
O        O      0.007666666667     0.779866666667     0.542000000000     0          
O        O      0.077133333333     0.820933333333     0.586600000000     0          
O        O      0.005666666667     0.772466666667     0.625600000000     0          
O        O      0.019466666667     0.843066666667     0.590650000000     0          
O        O      0.290200000000     0.709800000000     0.676050000000     0          
O        O      0.038600000000     0.743866666667     0.681600000000     0          
O        O      0.001966666667     0.785400000000     0.707950000000     0          
O        O      0.267866666667     0.732166666667     0.750000000000     0          
O        O      0.291500000000     0.812400000000     0.750000000000     0          
O        O      0.287733333333     0.712266666667     0.500000000000     0          
O        O      0.034766666667     0.736200000000     0.500000000000     0          
O        O      0.105533333333     0.992333333333     0.958000000000     0          
O        O      0.077133333333     0.922866666667     0.913400000000     0          
O        O      0.100133333333     0.994333333333     0.874400000000     0          
O        O      0.156933333333     0.980533333333     0.909350000000     0          
O        O      0.086266666667     0.709800000000     0.823950000000     0          
O        O      0.038600000000     0.961400000000     0.818400000000     0          
O        O      0.116766666667     0.998033333333     0.792050000000     0          
O        O      0.220133333333     0.894466666667     0.542000000000     0          
O        O      0.179066666667     0.922866666667     0.586600000000     0          
O        O      0.227533333333     0.899866666667     0.625600000000     0          
O        O      0.156933333333     0.843066666667     0.590650000000     0          
O        O      0.290200000000     0.913733333333     0.676050000000     0          
O        O      0.256133333333     0.961400000000     0.681600000000     0          
O        O      0.214600000000     0.883233333333     0.707950000000     0          
O        O      0.007666666667     0.779866666667     0.958000000000     0          
O        O      0.077133333333     0.820933333333     0.913400000000     0          
O        O      0.005666666667     0.772466666667     0.874400000000     0          
O        O      0.019466666667     0.843066666667     0.909350000000     0          
O        O      0.290200000000     0.709800000000     0.823950000000     0          
O        O      0.038600000000     0.743866666667     0.818400000000     0          
O        O      0.001966666667     0.785400000000     0.792050000000     0          
O        O      0.007666666667     0.894466666667     0.958000000000     0          
O        O      0.005666666667     0.899866666667     0.874400000000     0          
O        O      0.001966666667     0.883233333333     0.792050000000     0          
O        O      0.220133333333     0.992333333333     0.542000000000     0          
O        O      0.227533333333     0.994333333333     0.625600000000     0          
O        O      0.214600000000     0.998033333333     0.707950000000     0          
O        O      0.105533333333     0.779866666667     0.958000000000     0          
O        O      0.100133333333     0.772466666667     0.874400000000     0          
O        O      0.116766666667     0.785400000000     0.792050000000     0          
O        O      0.007666666667     0.894466666667     0.542000000000     0          
O        O      0.005666666667     0.899866666667     0.625600000000     0          
O        O      0.001966666667     0.883233333333     0.707950000000     0          
O        O      0.220133333333     0.992333333333     0.958000000000     0          
O        O      0.227533333333     0.994333333333     0.874400000000     0          
O        O      0.214600000000     0.998033333333     0.792050000000     0          
O        O      0.105533333333     0.779866666667     0.542000000000     0          
O        O      0.100133333333     0.772466666667     0.625600000000     0          
O        O      0.116766666667     0.785400000000     0.707950000000     0          
O        O      0.438866666667     0.325666666667     0.042000000000     0          
O        O      0.410466666667     0.256200000000     0.086600000000     0          
O        O      0.433466666667     0.327666666667     0.125600000000     0          
O        O      0.490266666667     0.313866666667     0.090650000000     0          
O        O      0.419600000000     0.043133333333     0.176050000000     0          
O        O      0.371933333333     0.294733333333     0.181600000000     0          
O        O      0.450100000000     0.331366666667     0.207950000000     0          
O        O      0.464300000000     0.065466666667     0.250000000000     0          
O        O      0.520900000000     0.041833333333     0.250000000000     0          
O        O      0.424533333333     0.045600000000     0.000000000000     0          
O        O      0.368100000000     0.298566666667     0.000000000000     0          
O        O      0.553466666667     0.227800000000     0.458000000000     0          
O        O      0.512400000000     0.256200000000     0.413400000000     0          
O        O      0.560866666667     0.233200000000     0.374400000000     0          
O        O      0.490266666667     0.176400000000     0.409350000000     0          
O        O      0.623533333333     0.247066666667     0.323950000000     0          
O        O      0.589466666667     0.294733333333     0.318400000000     0          
O        O      0.547933333333     0.216566666667     0.292050000000     0          
O        O      0.601166666667     0.202366666667     0.250000000000     0          
O        O      0.520933333333     0.145766666667     0.250000000000     0          
O        O      0.621066666667     0.242133333333     0.000000000000     0          
O        O      0.597133333333     0.298566666667     0.000000000000     0          
O        O      0.341000000000     0.113200000000     0.042000000000     0          
O        O      0.410466666667     0.154266666667     0.086600000000     0          
O        O      0.339000000000     0.105800000000     0.125600000000     0          
O        O      0.352800000000     0.176400000000     0.090650000000     0          
O        O      0.623533333333     0.043133333333     0.176050000000     0          
O        O      0.371933333333     0.077200000000     0.181600000000     0          
O        O      0.335300000000     0.118733333333     0.207950000000     0          
O        O      0.601200000000     0.065500000000     0.250000000000     0          
O        O      0.624833333333     0.145733333333     0.250000000000     0          
O        O      0.621066666667     0.045600000000     0.000000000000     0          
O        O      0.368100000000     0.069533333333     0.000000000000     0          
O        O      0.438866666667     0.325666666667     0.458000000000     0          
O        O      0.410466666667     0.256200000000     0.413400000000     0          
O        O      0.433466666667     0.327666666667     0.374400000000     0          
O        O      0.490266666667     0.313866666667     0.409350000000     0          
O        O      0.419600000000     0.043133333333     0.323950000000     0          
O        O      0.371933333333     0.294733333333     0.318400000000     0          
O        O      0.450100000000     0.331366666667     0.292050000000     0          
O        O      0.553466666667     0.227800000000     0.042000000000     0          
O        O      0.512400000000     0.256200000000     0.086600000000     0          
O        O      0.560866666667     0.233200000000     0.125600000000     0          
O        O      0.490266666667     0.176400000000     0.090650000000     0          
O        O      0.623533333333     0.247066666667     0.176050000000     0          
O        O      0.589466666667     0.294733333333     0.181600000000     0          
O        O      0.547933333333     0.216566666667     0.207950000000     0          
O        O      0.341000000000     0.113200000000     0.458000000000     0          
O        O      0.410466666667     0.154266666667     0.413400000000     0          
O        O      0.339000000000     0.105800000000     0.374400000000     0          
O        O      0.352800000000     0.176400000000     0.409350000000     0          
O        O      0.623533333333     0.043133333333     0.323950000000     0          
O        O      0.371933333333     0.077200000000     0.318400000000     0          
O        O      0.335300000000     0.118733333333     0.292050000000     0          
O        O      0.341000000000     0.227800000000     0.458000000000     0          
O        O      0.339000000000     0.233200000000     0.374400000000     0          
O        O      0.335300000000     0.216566666667     0.292050000000     0          
O        O      0.553466666667     0.325666666667     0.042000000000     0          
O        O      0.560866666667     0.327666666667     0.125600000000     0          
O        O      0.547933333333     0.331366666667     0.207950000000     0          
O        O      0.438866666667     0.113200000000     0.458000000000     0          
O        O      0.433466666667     0.105800000000     0.374400000000     0          
O        O      0.450100000000     0.118733333333     0.292050000000     0          
O        O      0.341000000000     0.227800000000     0.042000000000     0          
O        O      0.339000000000     0.233200000000     0.125600000000     0          
O        O      0.335300000000     0.216566666667     0.207950000000     0          
O        O      0.553466666667     0.325666666667     0.458000000000     0          
O        O      0.560866666667     0.327666666667     0.374400000000     0          
O        O      0.547933333333     0.331366666667     0.292050000000     0          
O        O      0.438866666667     0.113200000000     0.042000000000     0          
O        O      0.433466666667     0.105800000000     0.125600000000     0          
O        O      0.450100000000     0.118733333333     0.207950000000     0          
O        O      0.438866666667     0.325666666667     0.542000000000     0          
O        O      0.410466666667     0.256200000000     0.586600000000     0          
O        O      0.433466666667     0.327666666667     0.625600000000     0          
O        O      0.490266666667     0.313866666667     0.590650000000     0          
O        O      0.419600000000     0.043133333333     0.676050000000     0          
O        O      0.371933333333     0.294733333333     0.681600000000     0          
O        O      0.450100000000     0.331366666667     0.707950000000     0          
O        O      0.464300000000     0.065466666667     0.750000000000     0          
O        O      0.520900000000     0.041833333333     0.750000000000     0          
O        O      0.424533333333     0.045600000000     0.500000000000     0          
O        O      0.368100000000     0.298566666667     0.500000000000     0          
O        O      0.553466666667     0.227800000000     0.958000000000     0          
O        O      0.512400000000     0.256200000000     0.913400000000     0          
O        O      0.560866666667     0.233200000000     0.874400000000     0          
O        O      0.490266666667     0.176400000000     0.909350000000     0          
O        O      0.623533333333     0.247066666667     0.823950000000     0          
O        O      0.589466666667     0.294733333333     0.818400000000     0          
O        O      0.547933333333     0.216566666667     0.792050000000     0          
O        O      0.601166666667     0.202366666667     0.750000000000     0          
O        O      0.520933333333     0.145766666667     0.750000000000     0          
O        O      0.621066666667     0.242133333333     0.500000000000     0          
O        O      0.597133333333     0.298566666667     0.500000000000     0          
O        O      0.341000000000     0.113200000000     0.542000000000     0          
O        O      0.410466666667     0.154266666667     0.586600000000     0          
O        O      0.339000000000     0.105800000000     0.625600000000     0          
O        O      0.352800000000     0.176400000000     0.590650000000     0          
O        O      0.623533333333     0.043133333333     0.676050000000     0          
O        O      0.371933333333     0.077200000000     0.681600000000     0          
O        O      0.335300000000     0.118733333333     0.707950000000     0          
O        O      0.601200000000     0.065500000000     0.750000000000     0          
O        O      0.624833333333     0.145733333333     0.750000000000     0          
O        O      0.621066666667     0.045600000000     0.500000000000     0          
O        O      0.368100000000     0.069533333333     0.500000000000     0          
O        O      0.438866666667     0.325666666667     0.958000000000     0          
O        O      0.410466666667     0.256200000000     0.913400000000     0          
O        O      0.433466666667     0.327666666667     0.874400000000     0          
O        O      0.490266666667     0.313866666667     0.909350000000     0          
O        O      0.419600000000     0.043133333333     0.823950000000     0          
O        O      0.371933333333     0.294733333333     0.818400000000     0          
O        O      0.450100000000     0.331366666667     0.792050000000     0          
O        O      0.553466666667     0.227800000000     0.542000000000     0          
O        O      0.512400000000     0.256200000000     0.586600000000     0          
O        O      0.560866666667     0.233200000000     0.625600000000     0          
O        O      0.490266666667     0.176400000000     0.590650000000     0          
O        O      0.623533333333     0.247066666667     0.676050000000     0          
O        O      0.589466666667     0.294733333333     0.681600000000     0          
O        O      0.547933333333     0.216566666667     0.707950000000     0          
O        O      0.341000000000     0.113200000000     0.958000000000     0          
O        O      0.410466666667     0.154266666667     0.913400000000     0          
O        O      0.339000000000     0.105800000000     0.874400000000     0          
O        O      0.352800000000     0.176400000000     0.909350000000     0          
O        O      0.623533333333     0.043133333333     0.823950000000     0          
O        O      0.371933333333     0.077200000000     0.818400000000     0          
O        O      0.335300000000     0.118733333333     0.792050000000     0          
O        O      0.341000000000     0.227800000000     0.958000000000     0          
O        O      0.339000000000     0.233200000000     0.874400000000     0          
O        O      0.335300000000     0.216566666667     0.792050000000     0          
O        O      0.553466666667     0.325666666667     0.542000000000     0          
O        O      0.560866666667     0.327666666667     0.625600000000     0          
O        O      0.547933333333     0.331366666667     0.707950000000     0          
O        O      0.438866666667     0.113200000000     0.958000000000     0          
O        O      0.433466666667     0.105800000000     0.874400000000     0          
O        O      0.450100000000     0.118733333333     0.792050000000     0          
O        O      0.341000000000     0.227800000000     0.542000000000     0          
O        O      0.339000000000     0.233200000000     0.625600000000     0          
O        O      0.335300000000     0.216566666667     0.707950000000     0          
O        O      0.553466666667     0.325666666667     0.958000000000     0          
O        O      0.560866666667     0.327666666667     0.874400000000     0          
O        O      0.547933333333     0.331366666667     0.792050000000     0          
O        O      0.438866666667     0.113200000000     0.542000000000     0          
O        O      0.433466666667     0.105800000000     0.625600000000     0          
O        O      0.450100000000     0.118733333333     0.707950000000     0          
O        O      0.438866666667     0.659000000000     0.042000000000     0          
O        O      0.410466666667     0.589533333333     0.086600000000     0          
O        O      0.433466666667     0.661000000000     0.125600000000     0          
O        O      0.490266666667     0.647200000000     0.090650000000     0          
O        O      0.419600000000     0.376466666667     0.176050000000     0          
O        O      0.371933333333     0.628066666667     0.181600000000     0          
O        O      0.450100000000     0.664700000000     0.207950000000     0          
O        O      0.464300000000     0.398800000000     0.250000000000     0          
O        O      0.520900000000     0.375166666667     0.250000000000     0          
O        O      0.424533333333     0.378933333333     0.000000000000     0          
O        O      0.368100000000     0.631900000000     0.000000000000     0          
O        O      0.553466666667     0.561133333333     0.458000000000     0          
O        O      0.512400000000     0.589533333333     0.413400000000     0          
O        O      0.560866666667     0.566533333333     0.374400000000     0          
O        O      0.490266666667     0.509733333333     0.409350000000     0          
O        O      0.623533333333     0.580400000000     0.323950000000     0          
O        O      0.589466666667     0.628066666667     0.318400000000     0          
O        O      0.547933333333     0.549900000000     0.292050000000     0          
O        O      0.601166666667     0.535700000000     0.250000000000     0          
O        O      0.520933333333     0.479100000000     0.250000000000     0          
O        O      0.621066666667     0.575466666667     0.000000000000     0          
O        O      0.597133333333     0.631900000000     0.000000000000     0          
O        O      0.341000000000     0.446533333333     0.042000000000     0          
O        O      0.410466666667     0.487600000000     0.086600000000     0          
O        O      0.339000000000     0.439133333333     0.125600000000     0          
O        O      0.352800000000     0.509733333333     0.090650000000     0          
O        O      0.623533333333     0.376466666667     0.176050000000     0          
O        O      0.371933333333     0.410533333333     0.181600000000     0          
O        O      0.335300000000     0.452066666667     0.207950000000     0          
O        O      0.601200000000     0.398833333333     0.250000000000     0          
O        O      0.624833333333     0.479066666667     0.250000000000     0          
O        O      0.621066666667     0.378933333333     0.000000000000     0          
O        O      0.368100000000     0.402866666667     0.000000000000     0          
O        O      0.438866666667     0.659000000000     0.458000000000     0          
O        O      0.410466666667     0.589533333333     0.413400000000     0          
O        O      0.433466666667     0.661000000000     0.374400000000     0          
O        O      0.490266666667     0.647200000000     0.409350000000     0          
O        O      0.419600000000     0.376466666667     0.323950000000     0          
O        O      0.371933333333     0.628066666667     0.318400000000     0          
O        O      0.450100000000     0.664700000000     0.292050000000     0          
O        O      0.553466666667     0.561133333333     0.042000000000     0          
O        O      0.512400000000     0.589533333333     0.086600000000     0          
O        O      0.560866666667     0.566533333333     0.125600000000     0          
O        O      0.490266666667     0.509733333333     0.090650000000     0          
O        O      0.623533333333     0.580400000000     0.176050000000     0          
O        O      0.589466666667     0.628066666667     0.181600000000     0          
O        O      0.547933333333     0.549900000000     0.207950000000     0          
O        O      0.341000000000     0.446533333333     0.458000000000     0          
O        O      0.410466666667     0.487600000000     0.413400000000     0          
O        O      0.339000000000     0.439133333333     0.374400000000     0          
O        O      0.352800000000     0.509733333333     0.409350000000     0          
O        O      0.623533333333     0.376466666667     0.323950000000     0          
O        O      0.371933333333     0.410533333333     0.318400000000     0          
O        O      0.335300000000     0.452066666667     0.292050000000     0          
O        O      0.341000000000     0.561133333333     0.458000000000     0          
O        O      0.339000000000     0.566533333333     0.374400000000     0          
O        O      0.335300000000     0.549900000000     0.292050000000     0          
O        O      0.553466666667     0.659000000000     0.042000000000     0          
O        O      0.560866666667     0.661000000000     0.125600000000     0          
O        O      0.547933333333     0.664700000000     0.207950000000     0          
O        O      0.438866666667     0.446533333333     0.458000000000     0          
O        O      0.433466666667     0.439133333333     0.374400000000     0          
O        O      0.450100000000     0.452066666667     0.292050000000     0          
O        O      0.341000000000     0.561133333333     0.042000000000     0          
O        O      0.339000000000     0.566533333333     0.125600000000     0          
O        O      0.335300000000     0.549900000000     0.207950000000     0          
O        O      0.553466666667     0.659000000000     0.458000000000     0          
O        O      0.560866666667     0.661000000000     0.374400000000     0          
O        O      0.547933333333     0.664700000000     0.292050000000     0          
O        O      0.438866666667     0.446533333333     0.042000000000     0          
O        O      0.433466666667     0.439133333333     0.125600000000     0          
O        O      0.450100000000     0.452066666667     0.207950000000     0          
O        O      0.438866666667     0.659000000000     0.542000000000     0          
O        O      0.410466666667     0.589533333333     0.586600000000     0          
O        O      0.433466666667     0.661000000000     0.625600000000     0          
O        O      0.490266666667     0.647200000000     0.590650000000     0          
O        O      0.419600000000     0.376466666667     0.676050000000     0          
O        O      0.371933333333     0.628066666667     0.681600000000     0          
O        O      0.450100000000     0.664700000000     0.707950000000     0          
O        O      0.464300000000     0.398800000000     0.750000000000     0          
O        O      0.520900000000     0.375166666667     0.750000000000     0          
O        O      0.424533333333     0.378933333333     0.500000000000     0          
O        O      0.368100000000     0.631900000000     0.500000000000     0          
O        O      0.553466666667     0.561133333333     0.958000000000     0          
O        O      0.512400000000     0.589533333333     0.913400000000     0          
O        O      0.560866666667     0.566533333333     0.874400000000     0          
O        O      0.490266666667     0.509733333333     0.909350000000     0          
O        O      0.623533333333     0.580400000000     0.823950000000     0          
O        O      0.589466666667     0.628066666667     0.818400000000     0          
O        O      0.547933333333     0.549900000000     0.792050000000     0          
O        O      0.601166666667     0.535700000000     0.750000000000     0          
O        O      0.520933333333     0.479100000000     0.750000000000     0          
O        O      0.621066666667     0.575466666667     0.500000000000     0          
O        O      0.597133333333     0.631900000000     0.500000000000     0          
O        O      0.341000000000     0.446533333333     0.542000000000     0          
O        O      0.410466666667     0.487600000000     0.586600000000     0          
O        O      0.339000000000     0.439133333333     0.625600000000     0          
O        O      0.352800000000     0.509733333333     0.590650000000     0          
O        O      0.623533333333     0.376466666667     0.676050000000     0          
O        O      0.371933333333     0.410533333333     0.681600000000     0          
O        O      0.335300000000     0.452066666667     0.707950000000     0          
O        O      0.601200000000     0.398833333333     0.750000000000     0          
O        O      0.624833333333     0.479066666667     0.750000000000     0          
O        O      0.621066666667     0.378933333333     0.500000000000     0          
O        O      0.368100000000     0.402866666667     0.500000000000     0          
O        O      0.438866666667     0.659000000000     0.958000000000     0          
O        O      0.410466666667     0.589533333333     0.913400000000     0          
O        O      0.433466666667     0.661000000000     0.874400000000     0          
O        O      0.490266666667     0.647200000000     0.909350000000     0          
O        O      0.419600000000     0.376466666667     0.823950000000     0          
O        O      0.371933333333     0.628066666667     0.818400000000     0          
O        O      0.450100000000     0.664700000000     0.792050000000     0          
O        O      0.553466666667     0.561133333333     0.542000000000     0          
O        O      0.512400000000     0.589533333333     0.586600000000     0          
O        O      0.560866666667     0.566533333333     0.625600000000     0          
O        O      0.490266666667     0.509733333333     0.590650000000     0          
O        O      0.623533333333     0.580400000000     0.676050000000     0          
O        O      0.589466666667     0.628066666667     0.681600000000     0          
O        O      0.547933333333     0.549900000000     0.707950000000     0          
O        O      0.341000000000     0.446533333333     0.958000000000     0          
O        O      0.410466666667     0.487600000000     0.913400000000     0          
O        O      0.339000000000     0.439133333333     0.874400000000     0          
O        O      0.352800000000     0.509733333333     0.909350000000     0          
O        O      0.623533333333     0.376466666667     0.823950000000     0          
O        O      0.371933333333     0.410533333333     0.818400000000     0          
O        O      0.335300000000     0.452066666667     0.792050000000     0          
O        O      0.341000000000     0.561133333333     0.958000000000     0          
O        O      0.339000000000     0.566533333333     0.874400000000     0          
O        O      0.335300000000     0.549900000000     0.792050000000     0          
O        O      0.553466666667     0.659000000000     0.542000000000     0          
O        O      0.560866666667     0.661000000000     0.625600000000     0          
O        O      0.547933333333     0.664700000000     0.707950000000     0          
O        O      0.438866666667     0.446533333333     0.958000000000     0          
O        O      0.433466666667     0.439133333333     0.874400000000     0          
O        O      0.450100000000     0.452066666667     0.792050000000     0          
O        O      0.341000000000     0.561133333333     0.542000000000     0          
O        O      0.339000000000     0.566533333333     0.625600000000     0          
O        O      0.335300000000     0.549900000000     0.707950000000     0          
O        O      0.553466666667     0.659000000000     0.958000000000     0          
O        O      0.560866666667     0.661000000000     0.874400000000     0          
O        O      0.547933333333     0.664700000000     0.792050000000     0          
O        O      0.438866666667     0.446533333333     0.542000000000     0          
O        O      0.433466666667     0.439133333333     0.625600000000     0          
O        O      0.450100000000     0.452066666667     0.707950000000     0          
O        O      0.438866666667     0.992333333333     0.042000000000     0          
O        O      0.410466666667     0.922866666667     0.086600000000     0          
O        O      0.433466666667     0.994333333333     0.125600000000     0          
O        O      0.490266666667     0.980533333333     0.090650000000     0          
O        O      0.419600000000     0.709800000000     0.176050000000     0          
O        O      0.371933333333     0.961400000000     0.181600000000     0          
O        O      0.450100000000     0.998033333333     0.207950000000     0          
O        O      0.464300000000     0.732133333333     0.250000000000     0          
O        O      0.520900000000     0.708500000000     0.250000000000     0          
O        O      0.424533333333     0.712266666667     0.000000000000     0          
O        O      0.368100000000     0.965233333333     0.000000000000     0          
O        O      0.553466666667     0.894466666667     0.458000000000     0          
O        O      0.512400000000     0.922866666667     0.413400000000     0          
O        O      0.560866666667     0.899866666667     0.374400000000     0          
O        O      0.490266666667     0.843066666667     0.409350000000     0          
O        O      0.623533333333     0.913733333333     0.323950000000     0          
O        O      0.589466666667     0.961400000000     0.318400000000     0          
O        O      0.547933333333     0.883233333333     0.292050000000     0          
O        O      0.601166666667     0.869033333333     0.250000000000     0          
O        O      0.520933333333     0.812433333333     0.250000000000     0          
O        O      0.621066666667     0.908800000000     0.000000000000     0          
O        O      0.597133333333     0.965233333333     0.000000000000     0          
O        O      0.341000000000     0.779866666667     0.042000000000     0          
O        O      0.410466666667     0.820933333333     0.086600000000     0          
O        O      0.339000000000     0.772466666667     0.125600000000     0          
O        O      0.352800000000     0.843066666667     0.090650000000     0          
O        O      0.623533333333     0.709800000000     0.176050000000     0          
O        O      0.371933333333     0.743866666667     0.181600000000     0          
O        O      0.335300000000     0.785400000000     0.207950000000     0          
O        O      0.601200000000     0.732166666667     0.250000000000     0          
O        O      0.624833333333     0.812400000000     0.250000000000     0          
O        O      0.621066666667     0.712266666667     0.000000000000     0          
O        O      0.368100000000     0.736200000000     0.000000000000     0          
O        O      0.438866666667     0.992333333333     0.458000000000     0          
O        O      0.410466666667     0.922866666667     0.413400000000     0          
O        O      0.433466666667     0.994333333333     0.374400000000     0          
O        O      0.490266666667     0.980533333333     0.409350000000     0          
O        O      0.419600000000     0.709800000000     0.323950000000     0          
O        O      0.371933333333     0.961400000000     0.318400000000     0          
O        O      0.450100000000     0.998033333333     0.292050000000     0          
O        O      0.553466666667     0.894466666667     0.042000000000     0          
O        O      0.512400000000     0.922866666667     0.086600000000     0          
O        O      0.560866666667     0.899866666667     0.125600000000     0          
O        O      0.490266666667     0.843066666667     0.090650000000     0          
O        O      0.623533333333     0.913733333333     0.176050000000     0          
O        O      0.589466666667     0.961400000000     0.181600000000     0          
O        O      0.547933333333     0.883233333333     0.207950000000     0          
O        O      0.341000000000     0.779866666667     0.458000000000     0          
O        O      0.410466666667     0.820933333333     0.413400000000     0          
O        O      0.339000000000     0.772466666667     0.374400000000     0          
O        O      0.352800000000     0.843066666667     0.409350000000     0          
O        O      0.623533333333     0.709800000000     0.323950000000     0          
O        O      0.371933333333     0.743866666667     0.318400000000     0          
O        O      0.335300000000     0.785400000000     0.292050000000     0          
O        O      0.341000000000     0.894466666667     0.458000000000     0          
O        O      0.339000000000     0.899866666667     0.374400000000     0          
O        O      0.335300000000     0.883233333333     0.292050000000     0          
O        O      0.553466666667     0.992333333333     0.042000000000     0          
O        O      0.560866666667     0.994333333333     0.125600000000     0          
O        O      0.547933333333     0.998033333333     0.207950000000     0          
O        O      0.438866666667     0.779866666667     0.458000000000     0          
O        O      0.433466666667     0.772466666667     0.374400000000     0          
O        O      0.450100000000     0.785400000000     0.292050000000     0          
O        O      0.341000000000     0.894466666667     0.042000000000     0          
O        O      0.339000000000     0.899866666667     0.125600000000     0          
O        O      0.335300000000     0.883233333333     0.207950000000     0          
O        O      0.553466666667     0.992333333333     0.458000000000     0          
O        O      0.560866666667     0.994333333333     0.374400000000     0          
O        O      0.547933333333     0.998033333333     0.292050000000     0          
O        O      0.438866666667     0.779866666667     0.042000000000     0          
O        O      0.433466666667     0.772466666667     0.125600000000     0          
O        O      0.450100000000     0.785400000000     0.207950000000     0          
O        O      0.438866666667     0.992333333333     0.542000000000     0          
O        O      0.410466666667     0.922866666667     0.586600000000     0          
O        O      0.433466666667     0.994333333333     0.625600000000     0          
O        O      0.490266666667     0.980533333333     0.590650000000     0          
O        O      0.419600000000     0.709800000000     0.676050000000     0          
O        O      0.371933333333     0.961400000000     0.681600000000     0          
O        O      0.450100000000     0.998033333333     0.707950000000     0          
O        O      0.464300000000     0.732133333333     0.750000000000     0          
O        O      0.520900000000     0.708500000000     0.750000000000     0          
O        O      0.424533333333     0.712266666667     0.500000000000     0          
O        O      0.368100000000     0.965233333333     0.500000000000     0          
O        O      0.553466666667     0.894466666667     0.958000000000     0          
O        O      0.512400000000     0.922866666667     0.913400000000     0          
O        O      0.560866666667     0.899866666667     0.874400000000     0          
O        O      0.490266666667     0.843066666667     0.909350000000     0          
O        O      0.623533333333     0.913733333333     0.823950000000     0          
O        O      0.589466666667     0.961400000000     0.818400000000     0          
O        O      0.547933333333     0.883233333333     0.792050000000     0          
O        O      0.601166666667     0.869033333333     0.750000000000     0          
O        O      0.520933333333     0.812433333333     0.750000000000     0          
O        O      0.621066666667     0.908800000000     0.500000000000     0          
O        O      0.597133333333     0.965233333333     0.500000000000     0          
O        O      0.341000000000     0.779866666667     0.542000000000     0          
O        O      0.410466666667     0.820933333333     0.586600000000     0          
O        O      0.339000000000     0.772466666667     0.625600000000     0          
O        O      0.352800000000     0.843066666667     0.590650000000     0          
O        O      0.623533333333     0.709800000000     0.676050000000     0          
O        O      0.371933333333     0.743866666667     0.681600000000     0          
O        O      0.335300000000     0.785400000000     0.707950000000     0          
O        O      0.601200000000     0.732166666667     0.750000000000     0          
O        O      0.624833333333     0.812400000000     0.750000000000     0          
O        O      0.621066666667     0.712266666667     0.500000000000     0          
O        O      0.368100000000     0.736200000000     0.500000000000     0          
O        O      0.438866666667     0.992333333333     0.958000000000     0          
O        O      0.410466666667     0.922866666667     0.913400000000     0          
O        O      0.433466666667     0.994333333333     0.874400000000     0          
O        O      0.490266666667     0.980533333333     0.909350000000     0          
O        O      0.419600000000     0.709800000000     0.823950000000     0          
O        O      0.371933333333     0.961400000000     0.818400000000     0          
O        O      0.450100000000     0.998033333333     0.792050000000     0          
O        O      0.553466666667     0.894466666667     0.542000000000     0          
O        O      0.512400000000     0.922866666667     0.586600000000     0          
O        O      0.560866666667     0.899866666667     0.625600000000     0          
O        O      0.490266666667     0.843066666667     0.590650000000     0          
O        O      0.623533333333     0.913733333333     0.676050000000     0          
O        O      0.589466666667     0.961400000000     0.681600000000     0          
O        O      0.547933333333     0.883233333333     0.707950000000     0          
O        O      0.341000000000     0.779866666667     0.958000000000     0          
O        O      0.410466666667     0.820933333333     0.913400000000     0          
O        O      0.339000000000     0.772466666667     0.874400000000     0          
O        O      0.352800000000     0.843066666667     0.909350000000     0          
O        O      0.623533333333     0.709800000000     0.823950000000     0          
O        O      0.371933333333     0.743866666667     0.818400000000     0          
O        O      0.335300000000     0.785400000000     0.792050000000     0          
O        O      0.341000000000     0.894466666667     0.958000000000     0          
O        O      0.339000000000     0.899866666667     0.874400000000     0          
O        O      0.335300000000     0.883233333333     0.792050000000     0          
O        O      0.553466666667     0.992333333333     0.542000000000     0          
O        O      0.560866666667     0.994333333333     0.625600000000     0          
O        O      0.547933333333     0.998033333333     0.707950000000     0          
O        O      0.438866666667     0.779866666667     0.958000000000     0          
O        O      0.433466666667     0.772466666667     0.874400000000     0          
O        O      0.450100000000     0.785400000000     0.792050000000     0          
O        O      0.341000000000     0.894466666667     0.542000000000     0          
O        O      0.339000000000     0.899866666667     0.625600000000     0          
O        O      0.335300000000     0.883233333333     0.707950000000     0          
O        O      0.553466666667     0.992333333333     0.958000000000     0          
O        O      0.560866666667     0.994333333333     0.874400000000     0          
O        O      0.547933333333     0.998033333333     0.792050000000     0          
O        O      0.438866666667     0.779866666667     0.542000000000     0          
O        O      0.433466666667     0.772466666667     0.625600000000     0          
O        O      0.450100000000     0.785400000000     0.707950000000     0          
O        O      0.772200000000     0.325666666667     0.042000000000     0          
O        O      0.743800000000     0.256200000000     0.086600000000     0          
O        O      0.766800000000     0.327666666667     0.125600000000     0          
O        O      0.823600000000     0.313866666667     0.090650000000     0          
O        O      0.752933333333     0.043133333333     0.176050000000     0          
O        O      0.705266666667     0.294733333333     0.181600000000     0          
O        O      0.783433333333     0.331366666667     0.207950000000     0          
O        O      0.797633333333     0.065466666667     0.250000000000     0          
O        O      0.854233333333     0.041833333333     0.250000000000     0          
O        O      0.757866666667     0.045600000000     0.000000000000     0          
O        O      0.701433333333     0.298566666667     0.000000000000     0          
O        O      0.886800000000     0.227800000000     0.458000000000     0          
O        O      0.845733333333     0.256200000000     0.413400000000     0          
O        O      0.894200000000     0.233200000000     0.374400000000     0          
O        O      0.823600000000     0.176400000000     0.409350000000     0          
O        O      0.956866666667     0.247066666667     0.323950000000     0          
O        O      0.922800000000     0.294733333333     0.318400000000     0          
O        O      0.881266666667     0.216566666667     0.292050000000     0          
O        O      0.934500000000     0.202366666667     0.250000000000     0          
O        O      0.854266666667     0.145766666667     0.250000000000     0          
O        O      0.954400000000     0.242133333333     0.000000000000     0          
O        O      0.930466666667     0.298566666667     0.000000000000     0          
O        O      0.674333333333     0.113200000000     0.042000000000     0          
O        O      0.743800000000     0.154266666667     0.086600000000     0          
O        O      0.672333333333     0.105800000000     0.125600000000     0          
O        O      0.686133333333     0.176400000000     0.090650000000     0          
O        O      0.956866666667     0.043133333333     0.176050000000     0          
O        O      0.705266666667     0.077200000000     0.181600000000     0          
O        O      0.668633333333     0.118733333333     0.207950000000     0          
O        O      0.934533333333     0.065500000000     0.250000000000     0          
O        O      0.958166666667     0.145733333333     0.250000000000     0          
O        O      0.954400000000     0.045600000000     0.000000000000     0          
O        O      0.701433333333     0.069533333333     0.000000000000     0          
O        O      0.772200000000     0.325666666667     0.458000000000     0          
O        O      0.743800000000     0.256200000000     0.413400000000     0          
O        O      0.766800000000     0.327666666667     0.374400000000     0          
O        O      0.823600000000     0.313866666667     0.409350000000     0          
O        O      0.752933333333     0.043133333333     0.323950000000     0          
O        O      0.705266666667     0.294733333333     0.318400000000     0          
O        O      0.783433333333     0.331366666667     0.292050000000     0          
O        O      0.886800000000     0.227800000000     0.042000000000     0          
O        O      0.845733333333     0.256200000000     0.086600000000     0          
O        O      0.894200000000     0.233200000000     0.125600000000     0          
O        O      0.823600000000     0.176400000000     0.090650000000     0          
O        O      0.956866666667     0.247066666667     0.176050000000     0          
O        O      0.922800000000     0.294733333333     0.181600000000     0          
O        O      0.881266666667     0.216566666667     0.207950000000     0          
O        O      0.674333333333     0.113200000000     0.458000000000     0          
O        O      0.743800000000     0.154266666667     0.413400000000     0          
O        O      0.672333333333     0.105800000000     0.374400000000     0          
O        O      0.686133333333     0.176400000000     0.409350000000     0          
O        O      0.956866666667     0.043133333333     0.323950000000     0          
O        O      0.705266666667     0.077200000000     0.318400000000     0          
O        O      0.668633333333     0.118733333333     0.292050000000     0          
O        O      0.674333333333     0.227800000000     0.458000000000     0          
O        O      0.672333333333     0.233200000000     0.374400000000     0          
O        O      0.668633333333     0.216566666667     0.292050000000     0          
O        O      0.886800000000     0.325666666667     0.042000000000     0          
O        O      0.894200000000     0.327666666667     0.125600000000     0          
O        O      0.881266666667     0.331366666667     0.207950000000     0          
O        O      0.772200000000     0.113200000000     0.458000000000     0          
O        O      0.766800000000     0.105800000000     0.374400000000     0          
O        O      0.783433333333     0.118733333333     0.292050000000     0          
O        O      0.674333333333     0.227800000000     0.042000000000     0          
O        O      0.672333333333     0.233200000000     0.125600000000     0          
O        O      0.668633333333     0.216566666667     0.207950000000     0          
O        O      0.886800000000     0.325666666667     0.458000000000     0          
O        O      0.894200000000     0.327666666667     0.374400000000     0          
O        O      0.881266666667     0.331366666667     0.292050000000     0          
O        O      0.772200000000     0.113200000000     0.042000000000     0          
O        O      0.766800000000     0.105800000000     0.125600000000     0          
O        O      0.783433333333     0.118733333333     0.207950000000     0          
O        O      0.772200000000     0.325666666667     0.542000000000     0          
O        O      0.743800000000     0.256200000000     0.586600000000     0          
O        O      0.766800000000     0.327666666667     0.625600000000     0          
O        O      0.823600000000     0.313866666667     0.590650000000     0          
O        O      0.752933333333     0.043133333333     0.676050000000     0          
O        O      0.705266666667     0.294733333333     0.681600000000     0          
O        O      0.783433333333     0.331366666667     0.707950000000     0          
O        O      0.797633333333     0.065466666667     0.750000000000     0          
O        O      0.854233333333     0.041833333333     0.750000000000     0          
O        O      0.757866666667     0.045600000000     0.500000000000     0          
O        O      0.701433333333     0.298566666667     0.500000000000     0          
O        O      0.886800000000     0.227800000000     0.958000000000     0          
O        O      0.845733333333     0.256200000000     0.913400000000     0          
O        O      0.894200000000     0.233200000000     0.874400000000     0          
O        O      0.823600000000     0.176400000000     0.909350000000     0          
O        O      0.956866666667     0.247066666667     0.823950000000     0          
O        O      0.922800000000     0.294733333333     0.818400000000     0          
O        O      0.881266666667     0.216566666667     0.792050000000     0          
O        O      0.934500000000     0.202366666667     0.750000000000     0          
O        O      0.854266666667     0.145766666667     0.750000000000     0          
O        O      0.954400000000     0.242133333333     0.500000000000     0          
O        O      0.930466666667     0.298566666667     0.500000000000     0          
O        O      0.674333333333     0.113200000000     0.542000000000     0          
O        O      0.743800000000     0.154266666667     0.586600000000     0          
O        O      0.672333333333     0.105800000000     0.625600000000     0          
O        O      0.686133333333     0.176400000000     0.590650000000     0          
O        O      0.956866666667     0.043133333333     0.676050000000     0          
O        O      0.705266666667     0.077200000000     0.681600000000     0          
O        O      0.668633333333     0.118733333333     0.707950000000     0          
O        O      0.934533333333     0.065500000000     0.750000000000     0          
O        O      0.958166666667     0.145733333333     0.750000000000     0          
O        O      0.954400000000     0.045600000000     0.500000000000     0          
O        O      0.701433333333     0.069533333333     0.500000000000     0          
O        O      0.772200000000     0.325666666667     0.958000000000     0          
O        O      0.743800000000     0.256200000000     0.913400000000     0          
O        O      0.766800000000     0.327666666667     0.874400000000     0          
O        O      0.823600000000     0.313866666667     0.909350000000     0          
O        O      0.752933333333     0.043133333333     0.823950000000     0          
O        O      0.705266666667     0.294733333333     0.818400000000     0          
O        O      0.783433333333     0.331366666667     0.792050000000     0          
O        O      0.886800000000     0.227800000000     0.542000000000     0          
O        O      0.845733333333     0.256200000000     0.586600000000     0          
O        O      0.894200000000     0.233200000000     0.625600000000     0          
O        O      0.823600000000     0.176400000000     0.590650000000     0          
O        O      0.956866666667     0.247066666667     0.676050000000     0          
O        O      0.922800000000     0.294733333333     0.681600000000     0          
O        O      0.881266666667     0.216566666667     0.707950000000     0          
O        O      0.674333333333     0.113200000000     0.958000000000     0          
O        O      0.743800000000     0.154266666667     0.913400000000     0          
O        O      0.672333333333     0.105800000000     0.874400000000     0          
O        O      0.686133333333     0.176400000000     0.909350000000     0          
O        O      0.956866666667     0.043133333333     0.823950000000     0          
O        O      0.705266666667     0.077200000000     0.818400000000     0          
O        O      0.668633333333     0.118733333333     0.792050000000     0          
O        O      0.674333333333     0.227800000000     0.958000000000     0          
O        O      0.672333333333     0.233200000000     0.874400000000     0          
O        O      0.668633333333     0.216566666667     0.792050000000     0          
O        O      0.886800000000     0.325666666667     0.542000000000     0          
O        O      0.894200000000     0.327666666667     0.625600000000     0          
O        O      0.881266666667     0.331366666667     0.707950000000     0          
O        O      0.772200000000     0.113200000000     0.958000000000     0          
O        O      0.766800000000     0.105800000000     0.874400000000     0          
O        O      0.783433333333     0.118733333333     0.792050000000     0          
O        O      0.674333333333     0.227800000000     0.542000000000     0          
O        O      0.672333333333     0.233200000000     0.625600000000     0          
O        O      0.668633333333     0.216566666667     0.707950000000     0          
O        O      0.886800000000     0.325666666667     0.958000000000     0          
O        O      0.894200000000     0.327666666667     0.874400000000     0          
O        O      0.881266666667     0.331366666667     0.792050000000     0          
O        O      0.772200000000     0.113200000000     0.542000000000     0          
O        O      0.766800000000     0.105800000000     0.625600000000     0          
O        O      0.783433333333     0.118733333333     0.707950000000     0          
O        O      0.772200000000     0.659000000000     0.042000000000     0          
O        O      0.743800000000     0.589533333333     0.086600000000     0          
O        O      0.766800000000     0.661000000000     0.125600000000     0          
O        O      0.823600000000     0.647200000000     0.090650000000     0          
O        O      0.752933333333     0.376466666667     0.176050000000     0          
O        O      0.705266666667     0.628066666667     0.181600000000     0          
O        O      0.783433333333     0.664700000000     0.207950000000     0          
O        O      0.797633333333     0.398800000000     0.250000000000     0          
O        O      0.854233333333     0.375166666667     0.250000000000     0          
O        O      0.757866666667     0.378933333333     0.000000000000     0          
O        O      0.701433333333     0.631900000000     0.000000000000     0          
O        O      0.886800000000     0.561133333333     0.458000000000     0          
O        O      0.845733333333     0.589533333333     0.413400000000     0          
O        O      0.894200000000     0.566533333333     0.374400000000     0          
O        O      0.823600000000     0.509733333333     0.409350000000     0          
O        O      0.956866666667     0.580400000000     0.323950000000     0          
O        O      0.922800000000     0.628066666667     0.318400000000     0          
O        O      0.881266666667     0.549900000000     0.292050000000     0          
O        O      0.934500000000     0.535700000000     0.250000000000     0          
O        O      0.854266666667     0.479100000000     0.250000000000     0          
O        O      0.954400000000     0.575466666667     0.000000000000     0          
O        O      0.930466666667     0.631900000000     0.000000000000     0          
O        O      0.674333333333     0.446533333333     0.042000000000     0          
O        O      0.743800000000     0.487600000000     0.086600000000     0          
O        O      0.672333333333     0.439133333333     0.125600000000     0          
O        O      0.686133333333     0.509733333333     0.090650000000     0          
O        O      0.956866666667     0.376466666667     0.176050000000     0          
O        O      0.705266666667     0.410533333333     0.181600000000     0          
O        O      0.668633333333     0.452066666667     0.207950000000     0          
O        O      0.934533333333     0.398833333333     0.250000000000     0          
O        O      0.958166666667     0.479066666667     0.250000000000     0          
O        O      0.954400000000     0.378933333333     0.000000000000     0          
O        O      0.701433333333     0.402866666667     0.000000000000     0          
O        O      0.772200000000     0.659000000000     0.458000000000     0          
O        O      0.743800000000     0.589533333333     0.413400000000     0          
O        O      0.766800000000     0.661000000000     0.374400000000     0          
O        O      0.823600000000     0.647200000000     0.409350000000     0          
O        O      0.752933333333     0.376466666667     0.323950000000     0          
O        O      0.705266666667     0.628066666667     0.318400000000     0          
O        O      0.783433333333     0.664700000000     0.292050000000     0          
O        O      0.886800000000     0.561133333333     0.042000000000     0          
O        O      0.845733333333     0.589533333333     0.086600000000     0          
O        O      0.894200000000     0.566533333333     0.125600000000     0          
O        O      0.823600000000     0.509733333333     0.090650000000     0          
O        O      0.956866666667     0.580400000000     0.176050000000     0          
O        O      0.922800000000     0.628066666667     0.181600000000     0          
O        O      0.881266666667     0.549900000000     0.207950000000     0          
O        O      0.674333333333     0.446533333333     0.458000000000     0          
O        O      0.743800000000     0.487600000000     0.413400000000     0          
O        O      0.672333333333     0.439133333333     0.374400000000     0          
O        O      0.686133333333     0.509733333333     0.409350000000     0          
O        O      0.956866666667     0.376466666667     0.323950000000     0          
O        O      0.705266666667     0.410533333333     0.318400000000     0          
O        O      0.668633333333     0.452066666667     0.292050000000     0          
O        O      0.674333333333     0.561133333333     0.458000000000     0          
O        O      0.672333333333     0.566533333333     0.374400000000     0          
O        O      0.668633333333     0.549900000000     0.292050000000     0          
O        O      0.886800000000     0.659000000000     0.042000000000     0          
O        O      0.894200000000     0.661000000000     0.125600000000     0          
O        O      0.881266666667     0.664700000000     0.207950000000     0          
O        O      0.772200000000     0.446533333333     0.458000000000     0          
O        O      0.766800000000     0.439133333333     0.374400000000     0          
O        O      0.783433333333     0.452066666667     0.292050000000     0          
O        O      0.674333333333     0.561133333333     0.042000000000     0          
O        O      0.672333333333     0.566533333333     0.125600000000     0          
O        O      0.668633333333     0.549900000000     0.207950000000     0          
O        O      0.886800000000     0.659000000000     0.458000000000     0          
O        O      0.894200000000     0.661000000000     0.374400000000     0          
O        O      0.881266666667     0.664700000000     0.292050000000     0          
O        O      0.772200000000     0.446533333333     0.042000000000     0          
O        O      0.766800000000     0.439133333333     0.125600000000     0          
O        O      0.783433333333     0.452066666667     0.207950000000     0          
O        O      0.772200000000     0.659000000000     0.542000000000     0          
O        O      0.743800000000     0.589533333333     0.586600000000     0          
O        O      0.766800000000     0.661000000000     0.625600000000     0          
O        O      0.823600000000     0.647200000000     0.590650000000     0          
O        O      0.752933333333     0.376466666667     0.676050000000     0          
O        O      0.705266666667     0.628066666667     0.681600000000     0          
O        O      0.783433333333     0.664700000000     0.707950000000     0          
O        O      0.797633333333     0.398800000000     0.750000000000     0          
O        O      0.854233333333     0.375166666667     0.750000000000     0          
O        O      0.757866666667     0.378933333333     0.500000000000     0          
O        O      0.701433333333     0.631900000000     0.500000000000     0          
O        O      0.886800000000     0.561133333333     0.958000000000     0          
O        O      0.845733333333     0.589533333333     0.913400000000     0          
O        O      0.894200000000     0.566533333333     0.874400000000     0          
O        O      0.823600000000     0.509733333333     0.909350000000     0          
O        O      0.956866666667     0.580400000000     0.823950000000     0          
O        O      0.922800000000     0.628066666667     0.818400000000     0          
O        O      0.881266666667     0.549900000000     0.792050000000     0          
O        O      0.934500000000     0.535700000000     0.750000000000     0          
O        O      0.854266666667     0.479100000000     0.750000000000     0          
O        O      0.954400000000     0.575466666667     0.500000000000     0          
O        O      0.930466666667     0.631900000000     0.500000000000     0          
O        O      0.674333333333     0.446533333333     0.542000000000     0          
O        O      0.743800000000     0.487600000000     0.586600000000     0          
O        O      0.672333333333     0.439133333333     0.625600000000     0          
O        O      0.686133333333     0.509733333333     0.590650000000     0          
O        O      0.956866666667     0.376466666667     0.676050000000     0          
O        O      0.705266666667     0.410533333333     0.681600000000     0          
O        O      0.668633333333     0.452066666667     0.707950000000     0          
O        O      0.934533333333     0.398833333333     0.750000000000     0          
O        O      0.958166666667     0.479066666667     0.750000000000     0          
O        O      0.954400000000     0.378933333333     0.500000000000     0          
O        O      0.701433333333     0.402866666667     0.500000000000     0          
O        O      0.772200000000     0.659000000000     0.958000000000     0          
O        O      0.743800000000     0.589533333333     0.913400000000     0          
O        O      0.766800000000     0.661000000000     0.874400000000     0          
O        O      0.823600000000     0.647200000000     0.909350000000     0          
O        O      0.752933333333     0.376466666667     0.823950000000     0          
O        O      0.705266666667     0.628066666667     0.818400000000     0          
O        O      0.783433333333     0.664700000000     0.792050000000     0          
O        O      0.886800000000     0.561133333333     0.542000000000     0          
O        O      0.845733333333     0.589533333333     0.586600000000     0          
O        O      0.894200000000     0.566533333333     0.625600000000     0          
O        O      0.823600000000     0.509733333333     0.590650000000     0          
O        O      0.956866666667     0.580400000000     0.676050000000     0          
O        O      0.922800000000     0.628066666667     0.681600000000     0          
O        O      0.881266666667     0.549900000000     0.707950000000     0          
O        O      0.674333333333     0.446533333333     0.958000000000     0          
O        O      0.743800000000     0.487600000000     0.913400000000     0          
O        O      0.672333333333     0.439133333333     0.874400000000     0          
O        O      0.686133333333     0.509733333333     0.909350000000     0          
O        O      0.956866666667     0.376466666667     0.823950000000     0          
O        O      0.705266666667     0.410533333333     0.818400000000     0          
O        O      0.668633333333     0.452066666667     0.792050000000     0          
O        O      0.674333333333     0.561133333333     0.958000000000     0          
O        O      0.672333333333     0.566533333333     0.874400000000     0          
O        O      0.668633333333     0.549900000000     0.792050000000     0          
O        O      0.886800000000     0.659000000000     0.542000000000     0          
O        O      0.894200000000     0.661000000000     0.625600000000     0          
O        O      0.881266666667     0.664700000000     0.707950000000     0          
O        O      0.772200000000     0.446533333333     0.958000000000     0          
O        O      0.766800000000     0.439133333333     0.874400000000     0          
O        O      0.783433333333     0.452066666667     0.792050000000     0          
O        O      0.674333333333     0.561133333333     0.542000000000     0          
O        O      0.672333333333     0.566533333333     0.625600000000     0          
O        O      0.668633333333     0.549900000000     0.707950000000     0          
O        O      0.886800000000     0.659000000000     0.958000000000     0          
O        O      0.894200000000     0.661000000000     0.874400000000     0          
O        O      0.881266666667     0.664700000000     0.792050000000     0          
O        O      0.772200000000     0.446533333333     0.542000000000     0          
O        O      0.766800000000     0.439133333333     0.625600000000     0          
O        O      0.783433333333     0.452066666667     0.707950000000     0          
O        O      0.772200000000     0.992333333333     0.042000000000     0          
O        O      0.743800000000     0.922866666667     0.086600000000     0          
O        O      0.766800000000     0.994333333333     0.125600000000     0          
O        O      0.823600000000     0.980533333333     0.090650000000     0          
O        O      0.752933333333     0.709800000000     0.176050000000     0          
O        O      0.705266666667     0.961400000000     0.181600000000     0          
O        O      0.783433333333     0.998033333333     0.207950000000     0          
O        O      0.797633333333     0.732133333333     0.250000000000     0          
O        O      0.854233333333     0.708500000000     0.250000000000     0          
O        O      0.757866666667     0.712266666667     0.000000000000     0          
O        O      0.701433333333     0.965233333333     0.000000000000     0          
O        O      0.886800000000     0.894466666667     0.458000000000     0          
O        O      0.845733333333     0.922866666667     0.413400000000     0          
O        O      0.894200000000     0.899866666667     0.374400000000     0          
O        O      0.823600000000     0.843066666667     0.409350000000     0          
O        O      0.956866666667     0.913733333333     0.323950000000     0          
O        O      0.922800000000     0.961400000000     0.318400000000     0          
O        O      0.881266666667     0.883233333333     0.292050000000     0          
O        O      0.934500000000     0.869033333333     0.250000000000     0          
O        O      0.854266666667     0.812433333333     0.250000000000     0          
O        O      0.954400000000     0.908800000000     0.000000000000     0          
O        O      0.930466666667     0.965233333333     0.000000000000     0          
O        O      0.674333333333     0.779866666667     0.042000000000     0          
O        O      0.743800000000     0.820933333333     0.086600000000     0          
O        O      0.672333333333     0.772466666667     0.125600000000     0          
O        O      0.686133333333     0.843066666667     0.090650000000     0          
O        O      0.956866666667     0.709800000000     0.176050000000     0          
O        O      0.705266666667     0.743866666667     0.181600000000     0          
O        O      0.668633333333     0.785400000000     0.207950000000     0          
O        O      0.934533333333     0.732166666667     0.250000000000     0          
O        O      0.958166666667     0.812400000000     0.250000000000     0          
O        O      0.954400000000     0.712266666667     0.000000000000     0          
O        O      0.701433333333     0.736200000000     0.000000000000     0          
O        O      0.772200000000     0.992333333333     0.458000000000     0          
O        O      0.743800000000     0.922866666667     0.413400000000     0          
O        O      0.766800000000     0.994333333333     0.374400000000     0          
O        O      0.823600000000     0.980533333333     0.409350000000     0          
O        O      0.752933333333     0.709800000000     0.323950000000     0          
O        O      0.705266666667     0.961400000000     0.318400000000     0          
O        O      0.783433333333     0.998033333333     0.292050000000     0          
O        O      0.886800000000     0.894466666667     0.042000000000     0          
O        O      0.845733333333     0.922866666667     0.086600000000     0          
O        O      0.894200000000     0.899866666667     0.125600000000     0          
O        O      0.823600000000     0.843066666667     0.090650000000     0          
O        O      0.956866666667     0.913733333333     0.176050000000     0          
O        O      0.922800000000     0.961400000000     0.181600000000     0          
O        O      0.881266666667     0.883233333333     0.207950000000     0          
O        O      0.674333333333     0.779866666667     0.458000000000     0          
O        O      0.743800000000     0.820933333333     0.413400000000     0          
O        O      0.672333333333     0.772466666667     0.374400000000     0          
O        O      0.686133333333     0.843066666667     0.409350000000     0          
O        O      0.956866666667     0.709800000000     0.323950000000     0          
O        O      0.705266666667     0.743866666667     0.318400000000     0          
O        O      0.668633333333     0.785400000000     0.292050000000     0          
O        O      0.674333333333     0.894466666667     0.458000000000     0          
O        O      0.672333333333     0.899866666667     0.374400000000     0          
O        O      0.668633333333     0.883233333333     0.292050000000     0          
O        O      0.886800000000     0.992333333333     0.042000000000     0          
O        O      0.894200000000     0.994333333333     0.125600000000     0          
O        O      0.881266666667     0.998033333333     0.207950000000     0          
O        O      0.772200000000     0.779866666667     0.458000000000     0          
O        O      0.766800000000     0.772466666667     0.374400000000     0          
O        O      0.783433333333     0.785400000000     0.292050000000     0          
O        O      0.674333333333     0.894466666667     0.042000000000     0          
O        O      0.672333333333     0.899866666667     0.125600000000     0          
O        O      0.668633333333     0.883233333333     0.207950000000     0          
O        O      0.886800000000     0.992333333333     0.458000000000     0          
O        O      0.894200000000     0.994333333333     0.374400000000     0          
O        O      0.881266666667     0.998033333333     0.292050000000     0          
O        O      0.772200000000     0.779866666667     0.042000000000     0          
O        O      0.766800000000     0.772466666667     0.125600000000     0          
O        O      0.783433333333     0.785400000000     0.207950000000     0          
O        O      0.772200000000     0.992333333333     0.542000000000     0          
O        O      0.743800000000     0.922866666667     0.586600000000     0          
O        O      0.766800000000     0.994333333333     0.625600000000     0          
O        O      0.823600000000     0.980533333333     0.590650000000     0          
O        O      0.752933333333     0.709800000000     0.676050000000     0          
O        O      0.705266666667     0.961400000000     0.681600000000     0          
O        O      0.783433333333     0.998033333333     0.707950000000     0          
O        O      0.797633333333     0.732133333333     0.750000000000     0          
O        O      0.854233333333     0.708500000000     0.750000000000     0          
O        O      0.757866666667     0.712266666667     0.500000000000     0          
O        O      0.701433333333     0.965233333333     0.500000000000     0          
O        O      0.886800000000     0.894466666667     0.958000000000     0          
O        O      0.845733333333     0.922866666667     0.913400000000     0          
O        O      0.894200000000     0.899866666667     0.874400000000     0          
O        O      0.823600000000     0.843066666667     0.909350000000     0          
O        O      0.956866666667     0.913733333333     0.823950000000     0          
O        O      0.922800000000     0.961400000000     0.818400000000     0          
O        O      0.881266666667     0.883233333333     0.792050000000     0          
O        O      0.934500000000     0.869033333333     0.750000000000     0          
O        O      0.854266666667     0.812433333333     0.750000000000     0          
O        O      0.954400000000     0.908800000000     0.500000000000     0          
O        O      0.930466666667     0.965233333333     0.500000000000     0          
O        O      0.674333333333     0.779866666667     0.542000000000     0          
O        O      0.743800000000     0.820933333333     0.586600000000     0          
O        O      0.672333333333     0.772466666667     0.625600000000     0          
O        O      0.686133333333     0.843066666667     0.590650000000     0          
O        O      0.956866666667     0.709800000000     0.676050000000     0          
O        O      0.705266666667     0.743866666667     0.681600000000     0          
O        O      0.668633333333     0.785400000000     0.707950000000     0          
O        O      0.934533333333     0.732166666667     0.750000000000     0          
O        O      0.958166666667     0.812400000000     0.750000000000     0          
O        O      0.954400000000     0.712266666667     0.500000000000     0          
O        O      0.701433333333     0.736200000000     0.500000000000     0          
O        O      0.772200000000     0.992333333333     0.958000000000     0          
O        O      0.743800000000     0.922866666667     0.913400000000     0          
O        O      0.766800000000     0.994333333333     0.874400000000     0          
O        O      0.823600000000     0.980533333333     0.909350000000     0          
O        O      0.752933333333     0.709800000000     0.823950000000     0          
O        O      0.705266666667     0.961400000000     0.818400000000     0          
O        O      0.783433333333     0.998033333333     0.792050000000     0          
O        O      0.886800000000     0.894466666667     0.542000000000     0          
O        O      0.845733333333     0.922866666667     0.586600000000     0          
O        O      0.894200000000     0.899866666667     0.625600000000     0          
O        O      0.823600000000     0.843066666667     0.590650000000     0          
O        O      0.956866666667     0.913733333333     0.676050000000     0          
O        O      0.922800000000     0.961400000000     0.681600000000     0          
O        O      0.881266666667     0.883233333333     0.707950000000     0          
O        O      0.674333333333     0.779866666667     0.958000000000     0          
O        O      0.743800000000     0.820933333333     0.913400000000     0          
O        O      0.672333333333     0.772466666667     0.874400000000     0          
O        O      0.686133333333     0.843066666667     0.909350000000     0          
O        O      0.956866666667     0.709800000000     0.823950000000     0          
O        O      0.705266666667     0.743866666667     0.818400000000     0          
O        O      0.668633333333     0.785400000000     0.792050000000     0          
O        O      0.674333333333     0.894466666667     0.958000000000     0          
O        O      0.672333333333     0.899866666667     0.874400000000     0          
O        O      0.668633333333     0.883233333333     0.792050000000     0          
O        O      0.886800000000     0.992333333333     0.542000000000     0          
O        O      0.894200000000     0.994333333333     0.625600000000     0          
O        O      0.881266666667     0.998033333333     0.707950000000     0          
O        O      0.772200000000     0.779866666667     0.958000000000     0          
O        O      0.766800000000     0.772466666667     0.874400000000     0          
O        O      0.783433333333     0.785400000000     0.792050000000     0          
O        O      0.674333333333     0.894466666667     0.542000000000     0          
O        O      0.672333333333     0.899866666667     0.625600000000     0          
O        O      0.668633333333     0.883233333333     0.707950000000     0          
O        O      0.886800000000     0.992333333333     0.958000000000     0          
O        O      0.894200000000     0.994333333333     0.874400000000     0          
O        O      0.881266666667     0.998033333333     0.792050000000     0          
O        O      0.772200000000     0.779866666667     0.542000000000     0          
O        O      0.766800000000     0.772466666667     0.625600000000     0          
O        O      0.783433333333     0.785400000000     0.707950000000     0          


