data_zeolite

_audit_creation_method RASPA-1.0
_audit_creation_date 2021-6-6
_audit_author_name ''

_cell_length_a    43.3302
_cell_length_b    36.4615
_cell_length_c    37.4542
_cell_angle_alpha 90
_cell_angle_beta  124.74
_cell_angle_gamma 90
_cell_volume      48625.6

_symmetry_cell_setting          monoclinic
_symmetry_space_group_name_Hall 'P 1'
_symmetry_space_group_name_H-M  'P 1'
_symmetry_Int_Tables_number     1

_symmetry_equiv_pos_as_xyz 'x,y,z'

loop_
_atom_site_label
_atom_site_type_symbol
_atom_site_fract_x
_atom_site_fract_y
_atom_site_fract_z
_atom_site_charge
T        Si     0.086720000000     0.080080000000     0.154783333333     0          
T        Si     0.274335000000     0.376960000000     0.148956666667     0          
T        Si     0.353135000000     0.373230000000     0.097166666667     0          
T        Si     0.282620000000     0.424480000000     0.261196666667     0          
T        Si     0.292820000000     0.423375000000     0.017766666667     0          
T        Si     0.333730000000     0.422080000000     0.228483333333     0          
T        Si     0.335245000000     0.000000000000     0.198416666667     0          
T        Si     0.312150000000     0.000000000000     0.067106666667     0          
T        Si     0.115105000000     0.000000000000     0.173813333333     0          
T        Si     0.262470000000     0.000000000000     0.105970000000     0          
O        O      0.299070000000     0.343605000000     0.149773333333     0          
O        O      0.247180000000     0.392370000000     0.100113333333     0          
O        O      0.301750000000     0.409625000000     0.179566666667     0          
O        O      0.297290000000     0.420885000000     0.311360000000     0          
O        O      0.263555000000     0.463960000000     0.242356666667     0          
O        O      0.318060000000     0.419150000000     0.258346666667     0          
O        O      0.303805000000     0.463990000000     0.038073333333     0          
O        O      0.319420000000     0.393460000000     0.054203333333     0          
O        O      0.344810000000     0.464130000000     0.228063333333     0          
O        O      0.370245000000     0.396590000000     0.247520000000     0          
O        O      0.336440000000     0.343400000000     0.113606666667     0          
O        O      0.088980000000     0.036010000000     0.158076666667     0          
O        O      0.122940000000     0.096810000000     0.198540000000     0          
O        O      0.250000000000     0.363405000000     0.166666666667     0          
O        O      0.250000000000     0.414405000000     0.000000000000     0          
O        O      0.291750000000     0.000000000000     0.158050000000     0          
O        O      0.285495000000     0.000000000000     0.084190000000     0          
O        O      0.361695000000     0.000000000000     0.181063333333     0          
O        O      0.355670000000     0.000000000000     0.107460000000     0          
T        Si     0.413280000000     0.080080000000     0.178550000000     0          
T        Si     0.225665000000     0.376960000000     0.184376666667     0          
T        Si     0.146865000000     0.373230000000     0.236166666667     0          
T        Si     0.217380000000     0.424480000000     0.072136666667     0          
T        Si     0.207180000000     0.423375000000     0.315566666667     0          
T        Si     0.166270000000     0.422080000000     0.104850000000     0          
T        Si     0.164755000000     0.000000000000     0.134916666667     0          
T        Si     0.187850000000     0.000000000000     0.266226666667     0          
T        Si     0.384895000000     0.000000000000     0.159520000000     0          
T        Si     0.237530000000     0.000000000000     0.227363333333     0          
O        O      0.200930000000     0.343605000000     0.183560000000     0          
O        O      0.252820000000     0.392370000000     0.233220000000     0          
O        O      0.198250000000     0.409625000000     0.153766666667     0          
O        O      0.202710000000     0.420885000000     0.021973333333     0          
O        O      0.236445000000     0.463960000000     0.090976666667     0          
O        O      0.181940000000     0.419150000000     0.074986666667     0          
O        O      0.196195000000     0.463990000000     0.295260000000     0          
O        O      0.180580000000     0.393460000000     0.279130000000     0          
O        O      0.155190000000     0.464130000000     0.105270000000     0          
O        O      0.129755000000     0.396590000000     0.085813333333     0          
O        O      0.163560000000     0.343400000000     0.219726666667     0          
O        O      0.411020000000     0.036010000000     0.175256666667     0          
O        O      0.377060000000     0.096810000000     0.134793333333     0          
O        O      0.208250000000     0.000000000000     0.175283333333     0          
O        O      0.214505000000     0.000000000000     0.249143333333     0          
O        O      0.138305000000     0.000000000000     0.152270000000     0          
O        O      0.144330000000     0.000000000000     0.225873333333     0          
T        Si     0.413280000000     0.419920000000     0.178550000000     0          
T        Si     0.225665000000     0.123040000000     0.184376666667     0          
T        Si     0.146865000000     0.126770000000     0.236166666667     0          
T        Si     0.217380000000     0.075520000000     0.072136666667     0          
T        Si     0.207180000000     0.076625000000     0.315566666667     0          
T        Si     0.166270000000     0.077920000000     0.104850000000     0          
O        O      0.200930000000     0.156395000000     0.183560000000     0          
O        O      0.252820000000     0.107630000000     0.233220000000     0          
O        O      0.198250000000     0.090375000000     0.153766666667     0          
O        O      0.202710000000     0.079115000000     0.021973333333     0          
O        O      0.236445000000     0.036040000000     0.090976666667     0          
O        O      0.181940000000     0.080850000000     0.074986666667     0          
O        O      0.196195000000     0.036010000000     0.295260000000     0          
O        O      0.180580000000     0.106540000000     0.279130000000     0          
O        O      0.155190000000     0.035870000000     0.105270000000     0          
O        O      0.129755000000     0.103410000000     0.085813333333     0          
O        O      0.163560000000     0.156600000000     0.219726666667     0          
O        O      0.411020000000     0.463990000000     0.175256666667     0          
O        O      0.377060000000     0.403190000000     0.134793333333     0          
O        O      0.250000000000     0.136595000000     0.166666666667     0          
O        O      0.250000000000     0.085595000000     0.000000000000     0          
T        Si     0.086720000000     0.419920000000     0.154783333333     0          
T        Si     0.274335000000     0.123040000000     0.148956666667     0          
T        Si     0.353135000000     0.126770000000     0.097166666667     0          
T        Si     0.282620000000     0.075520000000     0.261196666667     0          
T        Si     0.292820000000     0.076625000000     0.017766666667     0          
T        Si     0.333730000000     0.077920000000     0.228483333333     0          
O        O      0.299070000000     0.156395000000     0.149773333333     0          
O        O      0.247180000000     0.107630000000     0.100113333333     0          
O        O      0.301750000000     0.090375000000     0.179566666667     0          
O        O      0.297290000000     0.079115000000     0.311360000000     0          
O        O      0.263555000000     0.036040000000     0.242356666667     0          
O        O      0.318060000000     0.080850000000     0.258346666667     0          
O        O      0.303805000000     0.036010000000     0.038073333333     0          
O        O      0.319420000000     0.106540000000     0.054203333333     0          
O        O      0.344810000000     0.035870000000     0.228063333333     0          
O        O      0.370245000000     0.103410000000     0.247520000000     0          
O        O      0.336440000000     0.156600000000     0.113606666667     0          
O        O      0.088980000000     0.463990000000     0.158076666667     0          
O        O      0.122940000000     0.403190000000     0.198540000000     0          
T        Si     0.336720000000     0.330080000000     0.154783333333     0          
T        Si     0.024335000000     0.126960000000     0.148956666667     0          
T        Si     0.103135000000     0.123230000000     0.097166666667     0          
T        Si     0.032620000000     0.174480000000     0.261196666667     0          
T        Si     0.042820000000     0.173375000000     0.017766666667     0          
T        Si     0.083730000000     0.172080000000     0.228483333333     0          
T        Si     0.085245000000     0.250000000000     0.198416666667     0          
T        Si     0.062150000000     0.250000000000     0.067106666667     0          
T        Si     0.365105000000     0.250000000000     0.173813333333     0          
T        Si     0.012470000000     0.250000000000     0.105970000000     0          
O        O      0.049070000000     0.093605000000     0.149773333333     0          
O        O      0.497180000000     0.142370000000     0.100113333333     0          
O        O      0.051750000000     0.159625000000     0.179566666667     0          
O        O      0.047290000000     0.170885000000     0.311360000000     0          
O        O      0.013555000000     0.213960000000     0.242356666667     0          
O        O      0.068060000000     0.169150000000     0.258346666667     0          
O        O      0.053805000000     0.213990000000     0.038073333333     0          
O        O      0.069420000000     0.143460000000     0.054203333333     0          
O        O      0.094810000000     0.214130000000     0.228063333333     0          
O        O      0.120245000000     0.146590000000     0.247520000000     0          
O        O      0.086440000000     0.093400000000     0.113606666667     0          
O        O      0.338980000000     0.286010000000     0.158076666667     0          
O        O      0.372940000000     0.346810000000     0.198540000000     0          
O        O      0.000000000000     0.113405000000     0.166666666667     0          
O        O      0.000000000000     0.164405000000     0.000000000000     0          
O        O      0.041750000000     0.250000000000     0.158050000000     0          
O        O      0.035495000000     0.250000000000     0.084190000000     0          
O        O      0.111695000000     0.250000000000     0.181063333333     0          
O        O      0.105670000000     0.250000000000     0.107460000000     0          
T        Si     0.163280000000     0.330080000000     0.178550000000     0          
T        Si     0.475665000000     0.126960000000     0.184376666667     0          
T        Si     0.396865000000     0.123230000000     0.236166666667     0          
T        Si     0.467380000000     0.174480000000     0.072136666667     0          
T        Si     0.457180000000     0.173375000000     0.315566666667     0          
T        Si     0.416270000000     0.172080000000     0.104850000000     0          
T        Si     0.414755000000     0.250000000000     0.134916666667     0          
T        Si     0.437850000000     0.250000000000     0.266226666667     0          
T        Si     0.134895000000     0.250000000000     0.159520000000     0          
T        Si     0.487530000000     0.250000000000     0.227363333333     0          
O        O      0.450930000000     0.093605000000     0.183560000000     0          
O        O      0.002820000000     0.142370000000     0.233220000000     0          
O        O      0.448250000000     0.159625000000     0.153766666667     0          
O        O      0.452710000000     0.170885000000     0.021973333333     0          
O        O      0.486445000000     0.213960000000     0.090976666667     0          
O        O      0.431940000000     0.169150000000     0.074986666667     0          
O        O      0.446195000000     0.213990000000     0.295260000000     0          
O        O      0.430580000000     0.143460000000     0.279130000000     0          
O        O      0.405190000000     0.214130000000     0.105270000000     0          
O        O      0.379755000000     0.146590000000     0.085813333333     0          
O        O      0.413560000000     0.093400000000     0.219726666667     0          
O        O      0.161020000000     0.286010000000     0.175256666667     0          
O        O      0.127060000000     0.346810000000     0.134793333333     0          
O        O      0.458250000000     0.250000000000     0.175283333333     0          
O        O      0.464505000000     0.250000000000     0.249143333333     0          
O        O      0.388305000000     0.250000000000     0.152270000000     0          
O        O      0.394330000000     0.250000000000     0.225873333333     0          
T        Si     0.163280000000     0.169920000000     0.178550000000     0          
T        Si     0.475665000000     0.373040000000     0.184376666667     0          
T        Si     0.396865000000     0.376770000000     0.236166666667     0          
T        Si     0.467380000000     0.325520000000     0.072136666667     0          
T        Si     0.457180000000     0.326625000000     0.315566666667     0          
T        Si     0.416270000000     0.327920000000     0.104850000000     0          
O        O      0.450930000000     0.406395000000     0.183560000000     0          
O        O      0.002820000000     0.357630000000     0.233220000000     0          
O        O      0.448250000000     0.340375000000     0.153766666667     0          
O        O      0.452710000000     0.329115000000     0.021973333333     0          
O        O      0.486445000000     0.286040000000     0.090976666667     0          
O        O      0.431940000000     0.330850000000     0.074986666667     0          
O        O      0.446195000000     0.286010000000     0.295260000000     0          
O        O      0.430580000000     0.356540000000     0.279130000000     0          
O        O      0.405190000000     0.285870000000     0.105270000000     0          
O        O      0.379755000000     0.353410000000     0.085813333333     0          
O        O      0.413560000000     0.406600000000     0.219726666667     0          
O        O      0.161020000000     0.213990000000     0.175256666667     0          
O        O      0.127060000000     0.153190000000     0.134793333333     0          
O        O      0.000000000000     0.386595000000     0.166666666667     0          
O        O      0.000000000000     0.335595000000     0.000000000000     0          
T        Si     0.336720000000     0.169920000000     0.154783333333     0          
T        Si     0.024335000000     0.373040000000     0.148956666667     0          
T        Si     0.103135000000     0.376770000000     0.097166666667     0          
T        Si     0.032620000000     0.325520000000     0.261196666667     0          
T        Si     0.042820000000     0.326625000000     0.017766666667     0          
T        Si     0.083730000000     0.327920000000     0.228483333333     0          
O        O      0.049070000000     0.406395000000     0.149773333333     0          
O        O      0.497180000000     0.357630000000     0.100113333333     0          
O        O      0.051750000000     0.340375000000     0.179566666667     0          
O        O      0.047290000000     0.329115000000     0.311360000000     0          
O        O      0.013555000000     0.286040000000     0.242356666667     0          
O        O      0.068060000000     0.330850000000     0.258346666667     0          
O        O      0.053805000000     0.286010000000     0.038073333333     0          
O        O      0.069420000000     0.356540000000     0.054203333333     0          
O        O      0.094810000000     0.285870000000     0.228063333333     0          
O        O      0.120245000000     0.353410000000     0.247520000000     0          
O        O      0.086440000000     0.406600000000     0.113606666667     0          
O        O      0.338980000000     0.213990000000     0.158076666667     0          
O        O      0.372940000000     0.153190000000     0.198540000000     0          
T        Si     0.086720000000     0.080080000000     0.488116666667     0          
T        Si     0.274335000000     0.376960000000     0.482290000000     0          
T        Si     0.353135000000     0.373230000000     0.430500000000     0          
T        Si     0.282620000000     0.424480000000     0.594530000000     0          
T        Si     0.292820000000     0.423375000000     0.351100000000     0          
T        Si     0.333730000000     0.422080000000     0.561816666667     0          
T        Si     0.335245000000     0.000000000000     0.531750000000     0          
T        Si     0.312150000000     0.000000000000     0.400440000000     0          
T        Si     0.115105000000     0.000000000000     0.507146666667     0          
T        Si     0.262470000000     0.000000000000     0.439303333333     0          
O        O      0.299070000000     0.343605000000     0.483106666667     0          
O        O      0.247180000000     0.392370000000     0.433446666667     0          
O        O      0.301750000000     0.409625000000     0.512900000000     0          
O        O      0.297290000000     0.420885000000     0.644693333333     0          
O        O      0.263555000000     0.463960000000     0.575690000000     0          
O        O      0.318060000000     0.419150000000     0.591680000000     0          
O        O      0.303805000000     0.463990000000     0.371406666667     0          
O        O      0.319420000000     0.393460000000     0.387536666667     0          
O        O      0.344810000000     0.464130000000     0.561396666667     0          
O        O      0.370245000000     0.396590000000     0.580853333333     0          
O        O      0.336440000000     0.343400000000     0.446940000000     0          
O        O      0.088980000000     0.036010000000     0.491410000000     0          
O        O      0.122940000000     0.096810000000     0.531873333333     0          
O        O      0.250000000000     0.363405000000     0.500000000000     0          
O        O      0.250000000000     0.414405000000     0.333333333333     0          
O        O      0.291750000000     0.000000000000     0.491383333333     0          
O        O      0.285495000000     0.000000000000     0.417523333333     0          
O        O      0.361695000000     0.000000000000     0.514396666667     0          
O        O      0.355670000000     0.000000000000     0.440793333333     0          
T        Si     0.413280000000     0.080080000000     0.511883333333     0          
T        Si     0.225665000000     0.376960000000     0.517710000000     0          
T        Si     0.146865000000     0.373230000000     0.569500000000     0          
T        Si     0.217380000000     0.424480000000     0.405470000000     0          
T        Si     0.207180000000     0.423375000000     0.648900000000     0          
T        Si     0.166270000000     0.422080000000     0.438183333333     0          
T        Si     0.164755000000     0.000000000000     0.468250000000     0          
T        Si     0.187850000000     0.000000000000     0.599560000000     0          
T        Si     0.384895000000     0.000000000000     0.492853333333     0          
T        Si     0.237530000000     0.000000000000     0.560696666667     0          
O        O      0.200930000000     0.343605000000     0.516893333333     0          
O        O      0.252820000000     0.392370000000     0.566553333333     0          
O        O      0.198250000000     0.409625000000     0.487100000000     0          
O        O      0.202710000000     0.420885000000     0.355306666667     0          
O        O      0.236445000000     0.463960000000     0.424310000000     0          
O        O      0.181940000000     0.419150000000     0.408320000000     0          
O        O      0.196195000000     0.463990000000     0.628593333333     0          
O        O      0.180580000000     0.393460000000     0.612463333333     0          
O        O      0.155190000000     0.464130000000     0.438603333333     0          
O        O      0.129755000000     0.396590000000     0.419146666667     0          
O        O      0.163560000000     0.343400000000     0.553060000000     0          
O        O      0.411020000000     0.036010000000     0.508590000000     0          
O        O      0.377060000000     0.096810000000     0.468126666667     0          
O        O      0.208250000000     0.000000000000     0.508616666667     0          
O        O      0.214505000000     0.000000000000     0.582476666667     0          
O        O      0.138305000000     0.000000000000     0.485603333333     0          
O        O      0.144330000000     0.000000000000     0.559206666667     0          
T        Si     0.413280000000     0.419920000000     0.511883333333     0          
T        Si     0.225665000000     0.123040000000     0.517710000000     0          
T        Si     0.146865000000     0.126770000000     0.569500000000     0          
T        Si     0.217380000000     0.075520000000     0.405470000000     0          
T        Si     0.207180000000     0.076625000000     0.648900000000     0          
T        Si     0.166270000000     0.077920000000     0.438183333333     0          
O        O      0.200930000000     0.156395000000     0.516893333333     0          
O        O      0.252820000000     0.107630000000     0.566553333333     0          
O        O      0.198250000000     0.090375000000     0.487100000000     0          
O        O      0.202710000000     0.079115000000     0.355306666667     0          
O        O      0.236445000000     0.036040000000     0.424310000000     0          
O        O      0.181940000000     0.080850000000     0.408320000000     0          
O        O      0.196195000000     0.036010000000     0.628593333333     0          
O        O      0.180580000000     0.106540000000     0.612463333333     0          
O        O      0.155190000000     0.035870000000     0.438603333333     0          
O        O      0.129755000000     0.103410000000     0.419146666667     0          
O        O      0.163560000000     0.156600000000     0.553060000000     0          
O        O      0.411020000000     0.463990000000     0.508590000000     0          
O        O      0.377060000000     0.403190000000     0.468126666667     0          
O        O      0.250000000000     0.136595000000     0.500000000000     0          
O        O      0.250000000000     0.085595000000     0.333333333333     0          
T        Si     0.086720000000     0.419920000000     0.488116666667     0          
T        Si     0.274335000000     0.123040000000     0.482290000000     0          
T        Si     0.353135000000     0.126770000000     0.430500000000     0          
T        Si     0.282620000000     0.075520000000     0.594530000000     0          
T        Si     0.292820000000     0.076625000000     0.351100000000     0          
T        Si     0.333730000000     0.077920000000     0.561816666667     0          
O        O      0.299070000000     0.156395000000     0.483106666667     0          
O        O      0.247180000000     0.107630000000     0.433446666667     0          
O        O      0.301750000000     0.090375000000     0.512900000000     0          
O        O      0.297290000000     0.079115000000     0.644693333333     0          
O        O      0.263555000000     0.036040000000     0.575690000000     0          
O        O      0.318060000000     0.080850000000     0.591680000000     0          
O        O      0.303805000000     0.036010000000     0.371406666667     0          
O        O      0.319420000000     0.106540000000     0.387536666667     0          
O        O      0.344810000000     0.035870000000     0.561396666667     0          
O        O      0.370245000000     0.103410000000     0.580853333333     0          
O        O      0.336440000000     0.156600000000     0.446940000000     0          
O        O      0.088980000000     0.463990000000     0.491410000000     0          
O        O      0.122940000000     0.403190000000     0.531873333333     0          
T        Si     0.336720000000     0.330080000000     0.488116666667     0          
T        Si     0.024335000000     0.126960000000     0.482290000000     0          
T        Si     0.103135000000     0.123230000000     0.430500000000     0          
T        Si     0.032620000000     0.174480000000     0.594530000000     0          
T        Si     0.042820000000     0.173375000000     0.351100000000     0          
T        Si     0.083730000000     0.172080000000     0.561816666667     0          
T        Si     0.085245000000     0.250000000000     0.531750000000     0          
T        Si     0.062150000000     0.250000000000     0.400440000000     0          
T        Si     0.365105000000     0.250000000000     0.507146666667     0          
T        Si     0.012470000000     0.250000000000     0.439303333333     0          
O        O      0.049070000000     0.093605000000     0.483106666667     0          
O        O      0.497180000000     0.142370000000     0.433446666667     0          
O        O      0.051750000000     0.159625000000     0.512900000000     0          
O        O      0.047290000000     0.170885000000     0.644693333333     0          
O        O      0.013555000000     0.213960000000     0.575690000000     0          
O        O      0.068060000000     0.169150000000     0.591680000000     0          
O        O      0.053805000000     0.213990000000     0.371406666667     0          
O        O      0.069420000000     0.143460000000     0.387536666667     0          
O        O      0.094810000000     0.214130000000     0.561396666667     0          
O        O      0.120245000000     0.146590000000     0.580853333333     0          
O        O      0.086440000000     0.093400000000     0.446940000000     0          
O        O      0.338980000000     0.286010000000     0.491410000000     0          
O        O      0.372940000000     0.346810000000     0.531873333333     0          
O        O      0.000000000000     0.113405000000     0.500000000000     0          
O        O      0.000000000000     0.164405000000     0.333333333333     0          
O        O      0.041750000000     0.250000000000     0.491383333333     0          
O        O      0.035495000000     0.250000000000     0.417523333333     0          
O        O      0.111695000000     0.250000000000     0.514396666667     0          
O        O      0.105670000000     0.250000000000     0.440793333333     0          
T        Si     0.163280000000     0.330080000000     0.511883333333     0          
T        Si     0.475665000000     0.126960000000     0.517710000000     0          
T        Si     0.396865000000     0.123230000000     0.569500000000     0          
T        Si     0.467380000000     0.174480000000     0.405470000000     0          
T        Si     0.457180000000     0.173375000000     0.648900000000     0          
T        Si     0.416270000000     0.172080000000     0.438183333333     0          
T        Si     0.414755000000     0.250000000000     0.468250000000     0          
T        Si     0.437850000000     0.250000000000     0.599560000000     0          
T        Si     0.134895000000     0.250000000000     0.492853333333     0          
T        Si     0.487530000000     0.250000000000     0.560696666667     0          
O        O      0.450930000000     0.093605000000     0.516893333333     0          
O        O      0.002820000000     0.142370000000     0.566553333333     0          
O        O      0.448250000000     0.159625000000     0.487100000000     0          
O        O      0.452710000000     0.170885000000     0.355306666667     0          
O        O      0.486445000000     0.213960000000     0.424310000000     0          
O        O      0.431940000000     0.169150000000     0.408320000000     0          
O        O      0.446195000000     0.213990000000     0.628593333333     0          
O        O      0.430580000000     0.143460000000     0.612463333333     0          
O        O      0.405190000000     0.214130000000     0.438603333333     0          
O        O      0.379755000000     0.146590000000     0.419146666667     0          
O        O      0.413560000000     0.093400000000     0.553060000000     0          
O        O      0.161020000000     0.286010000000     0.508590000000     0          
O        O      0.127060000000     0.346810000000     0.468126666667     0          
O        O      0.458250000000     0.250000000000     0.508616666667     0          
O        O      0.464505000000     0.250000000000     0.582476666667     0          
O        O      0.388305000000     0.250000000000     0.485603333333     0          
O        O      0.394330000000     0.250000000000     0.559206666667     0          
T        Si     0.163280000000     0.169920000000     0.511883333333     0          
T        Si     0.475665000000     0.373040000000     0.517710000000     0          
T        Si     0.396865000000     0.376770000000     0.569500000000     0          
T        Si     0.467380000000     0.325520000000     0.405470000000     0          
T        Si     0.457180000000     0.326625000000     0.648900000000     0          
T        Si     0.416270000000     0.327920000000     0.438183333333     0          
O        O      0.450930000000     0.406395000000     0.516893333333     0          
O        O      0.002820000000     0.357630000000     0.566553333333     0          
O        O      0.448250000000     0.340375000000     0.487100000000     0          
O        O      0.452710000000     0.329115000000     0.355306666667     0          
O        O      0.486445000000     0.286040000000     0.424310000000     0          
O        O      0.431940000000     0.330850000000     0.408320000000     0          
O        O      0.446195000000     0.286010000000     0.628593333333     0          
O        O      0.430580000000     0.356540000000     0.612463333333     0          
O        O      0.405190000000     0.285870000000     0.438603333333     0          
O        O      0.379755000000     0.353410000000     0.419146666667     0          
O        O      0.413560000000     0.406600000000     0.553060000000     0          
O        O      0.161020000000     0.213990000000     0.508590000000     0          
O        O      0.127060000000     0.153190000000     0.468126666667     0          
O        O      0.000000000000     0.386595000000     0.500000000000     0          
O        O      0.000000000000     0.335595000000     0.333333333333     0          
T        Si     0.336720000000     0.169920000000     0.488116666667     0          
T        Si     0.024335000000     0.373040000000     0.482290000000     0          
T        Si     0.103135000000     0.376770000000     0.430500000000     0          
T        Si     0.032620000000     0.325520000000     0.594530000000     0          
T        Si     0.042820000000     0.326625000000     0.351100000000     0          
T        Si     0.083730000000     0.327920000000     0.561816666667     0          
O        O      0.049070000000     0.406395000000     0.483106666667     0          
O        O      0.497180000000     0.357630000000     0.433446666667     0          
O        O      0.051750000000     0.340375000000     0.512900000000     0          
O        O      0.047290000000     0.329115000000     0.644693333333     0          
O        O      0.013555000000     0.286040000000     0.575690000000     0          
O        O      0.068060000000     0.330850000000     0.591680000000     0          
O        O      0.053805000000     0.286010000000     0.371406666667     0          
O        O      0.069420000000     0.356540000000     0.387536666667     0          
O        O      0.094810000000     0.285870000000     0.561396666667     0          
O        O      0.120245000000     0.353410000000     0.580853333333     0          
O        O      0.086440000000     0.406600000000     0.446940000000     0          
O        O      0.338980000000     0.213990000000     0.491410000000     0          
O        O      0.372940000000     0.153190000000     0.531873333333     0          
T        Si     0.086720000000     0.080080000000     0.821450000000     0          
T        Si     0.274335000000     0.376960000000     0.815623333333     0          
T        Si     0.353135000000     0.373230000000     0.763833333333     0          
T        Si     0.282620000000     0.424480000000     0.927863333333     0          
T        Si     0.292820000000     0.423375000000     0.684433333333     0          
T        Si     0.333730000000     0.422080000000     0.895150000000     0          
T        Si     0.335245000000     0.000000000000     0.865083333333     0          
T        Si     0.312150000000     0.000000000000     0.733773333333     0          
T        Si     0.115105000000     0.000000000000     0.840480000000     0          
T        Si     0.262470000000     0.000000000000     0.772636666667     0          
O        O      0.299070000000     0.343605000000     0.816440000000     0          
O        O      0.247180000000     0.392370000000     0.766780000000     0          
O        O      0.301750000000     0.409625000000     0.846233333333     0          
O        O      0.297290000000     0.420885000000     0.978026666667     0          
O        O      0.263555000000     0.463960000000     0.909023333333     0          
O        O      0.318060000000     0.419150000000     0.925013333333     0          
O        O      0.303805000000     0.463990000000     0.704740000000     0          
O        O      0.319420000000     0.393460000000     0.720870000000     0          
O        O      0.344810000000     0.464130000000     0.894730000000     0          
O        O      0.370245000000     0.396590000000     0.914186666667     0          
O        O      0.336440000000     0.343400000000     0.780273333333     0          
O        O      0.088980000000     0.036010000000     0.824743333333     0          
O        O      0.122940000000     0.096810000000     0.865206666667     0          
O        O      0.250000000000     0.363405000000     0.833333333333     0          
O        O      0.250000000000     0.414405000000     0.666666666667     0          
O        O      0.291750000000     0.000000000000     0.824716666667     0          
O        O      0.285495000000     0.000000000000     0.750856666667     0          
O        O      0.361695000000     0.000000000000     0.847730000000     0          
O        O      0.355670000000     0.000000000000     0.774126666667     0          
T        Si     0.413280000000     0.080080000000     0.845216666667     0          
T        Si     0.225665000000     0.376960000000     0.851043333333     0          
T        Si     0.146865000000     0.373230000000     0.902833333333     0          
T        Si     0.217380000000     0.424480000000     0.738803333333     0          
T        Si     0.207180000000     0.423375000000     0.982233333333     0          
T        Si     0.166270000000     0.422080000000     0.771516666667     0          
T        Si     0.164755000000     0.000000000000     0.801583333333     0          
T        Si     0.187850000000     0.000000000000     0.932893333333     0          
T        Si     0.384895000000     0.000000000000     0.826186666667     0          
T        Si     0.237530000000     0.000000000000     0.894030000000     0          
O        O      0.200930000000     0.343605000000     0.850226666667     0          
O        O      0.252820000000     0.392370000000     0.899886666667     0          
O        O      0.198250000000     0.409625000000     0.820433333333     0          
O        O      0.202710000000     0.420885000000     0.688640000000     0          
O        O      0.236445000000     0.463960000000     0.757643333333     0          
O        O      0.181940000000     0.419150000000     0.741653333333     0          
O        O      0.196195000000     0.463990000000     0.961926666667     0          
O        O      0.180580000000     0.393460000000     0.945796666667     0          
O        O      0.155190000000     0.464130000000     0.771936666667     0          
O        O      0.129755000000     0.396590000000     0.752480000000     0          
O        O      0.163560000000     0.343400000000     0.886393333333     0          
O        O      0.411020000000     0.036010000000     0.841923333333     0          
O        O      0.377060000000     0.096810000000     0.801460000000     0          
O        O      0.208250000000     0.000000000000     0.841950000000     0          
O        O      0.214505000000     0.000000000000     0.915810000000     0          
O        O      0.138305000000     0.000000000000     0.818936666667     0          
O        O      0.144330000000     0.000000000000     0.892540000000     0          
T        Si     0.413280000000     0.419920000000     0.845216666667     0          
T        Si     0.225665000000     0.123040000000     0.851043333333     0          
T        Si     0.146865000000     0.126770000000     0.902833333333     0          
T        Si     0.217380000000     0.075520000000     0.738803333333     0          
T        Si     0.207180000000     0.076625000000     0.982233333333     0          
T        Si     0.166270000000     0.077920000000     0.771516666667     0          
O        O      0.200930000000     0.156395000000     0.850226666667     0          
O        O      0.252820000000     0.107630000000     0.899886666667     0          
O        O      0.198250000000     0.090375000000     0.820433333333     0          
O        O      0.202710000000     0.079115000000     0.688640000000     0          
O        O      0.236445000000     0.036040000000     0.757643333333     0          
O        O      0.181940000000     0.080850000000     0.741653333333     0          
O        O      0.196195000000     0.036010000000     0.961926666667     0          
O        O      0.180580000000     0.106540000000     0.945796666667     0          
O        O      0.155190000000     0.035870000000     0.771936666667     0          
O        O      0.129755000000     0.103410000000     0.752480000000     0          
O        O      0.163560000000     0.156600000000     0.886393333333     0          
O        O      0.411020000000     0.463990000000     0.841923333333     0          
O        O      0.377060000000     0.403190000000     0.801460000000     0          
O        O      0.250000000000     0.136595000000     0.833333333333     0          
O        O      0.250000000000     0.085595000000     0.666666666667     0          
T        Si     0.086720000000     0.419920000000     0.821450000000     0          
T        Si     0.274335000000     0.123040000000     0.815623333333     0          
T        Si     0.353135000000     0.126770000000     0.763833333333     0          
T        Si     0.282620000000     0.075520000000     0.927863333333     0          
T        Si     0.292820000000     0.076625000000     0.684433333333     0          
T        Si     0.333730000000     0.077920000000     0.895150000000     0          
O        O      0.299070000000     0.156395000000     0.816440000000     0          
O        O      0.247180000000     0.107630000000     0.766780000000     0          
O        O      0.301750000000     0.090375000000     0.846233333333     0          
O        O      0.297290000000     0.079115000000     0.978026666667     0          
O        O      0.263555000000     0.036040000000     0.909023333333     0          
O        O      0.318060000000     0.080850000000     0.925013333333     0          
O        O      0.303805000000     0.036010000000     0.704740000000     0          
O        O      0.319420000000     0.106540000000     0.720870000000     0          
O        O      0.344810000000     0.035870000000     0.894730000000     0          
O        O      0.370245000000     0.103410000000     0.914186666667     0          
O        O      0.336440000000     0.156600000000     0.780273333333     0          
O        O      0.088980000000     0.463990000000     0.824743333333     0          
O        O      0.122940000000     0.403190000000     0.865206666667     0          
T        Si     0.336720000000     0.330080000000     0.821450000000     0          
T        Si     0.024335000000     0.126960000000     0.815623333333     0          
T        Si     0.103135000000     0.123230000000     0.763833333333     0          
T        Si     0.032620000000     0.174480000000     0.927863333333     0          
T        Si     0.042820000000     0.173375000000     0.684433333333     0          
T        Si     0.083730000000     0.172080000000     0.895150000000     0          
T        Si     0.085245000000     0.250000000000     0.865083333333     0          
T        Si     0.062150000000     0.250000000000     0.733773333333     0          
T        Si     0.365105000000     0.250000000000     0.840480000000     0          
T        Si     0.012470000000     0.250000000000     0.772636666667     0          
O        O      0.049070000000     0.093605000000     0.816440000000     0          
O        O      0.497180000000     0.142370000000     0.766780000000     0          
O        O      0.051750000000     0.159625000000     0.846233333333     0          
O        O      0.047290000000     0.170885000000     0.978026666667     0          
O        O      0.013555000000     0.213960000000     0.909023333333     0          
O        O      0.068060000000     0.169150000000     0.925013333333     0          
O        O      0.053805000000     0.213990000000     0.704740000000     0          
O        O      0.069420000000     0.143460000000     0.720870000000     0          
O        O      0.094810000000     0.214130000000     0.894730000000     0          
O        O      0.120245000000     0.146590000000     0.914186666667     0          
O        O      0.086440000000     0.093400000000     0.780273333333     0          
O        O      0.338980000000     0.286010000000     0.824743333333     0          
O        O      0.372940000000     0.346810000000     0.865206666667     0          
O        O      0.000000000000     0.113405000000     0.833333333333     0          
O        O      0.000000000000     0.164405000000     0.666666666667     0          
O        O      0.041750000000     0.250000000000     0.824716666667     0          
O        O      0.035495000000     0.250000000000     0.750856666667     0          
O        O      0.111695000000     0.250000000000     0.847730000000     0          
O        O      0.105670000000     0.250000000000     0.774126666667     0          
T        Si     0.163280000000     0.330080000000     0.845216666667     0          
T        Si     0.475665000000     0.126960000000     0.851043333333     0          
T        Si     0.396865000000     0.123230000000     0.902833333333     0          
T        Si     0.467380000000     0.174480000000     0.738803333333     0          
T        Si     0.457180000000     0.173375000000     0.982233333333     0          
T        Si     0.416270000000     0.172080000000     0.771516666667     0          
T        Si     0.414755000000     0.250000000000     0.801583333333     0          
T        Si     0.437850000000     0.250000000000     0.932893333333     0          
T        Si     0.134895000000     0.250000000000     0.826186666667     0          
T        Si     0.487530000000     0.250000000000     0.894030000000     0          
O        O      0.450930000000     0.093605000000     0.850226666667     0          
O        O      0.002820000000     0.142370000000     0.899886666667     0          
O        O      0.448250000000     0.159625000000     0.820433333333     0          
O        O      0.452710000000     0.170885000000     0.688640000000     0          
O        O      0.486445000000     0.213960000000     0.757643333333     0          
O        O      0.431940000000     0.169150000000     0.741653333333     0          
O        O      0.446195000000     0.213990000000     0.961926666667     0          
O        O      0.430580000000     0.143460000000     0.945796666667     0          
O        O      0.405190000000     0.214130000000     0.771936666667     0          
O        O      0.379755000000     0.146590000000     0.752480000000     0          
O        O      0.413560000000     0.093400000000     0.886393333333     0          
O        O      0.161020000000     0.286010000000     0.841923333333     0          
O        O      0.127060000000     0.346810000000     0.801460000000     0          
O        O      0.458250000000     0.250000000000     0.841950000000     0          
O        O      0.464505000000     0.250000000000     0.915810000000     0          
O        O      0.388305000000     0.250000000000     0.818936666667     0          
O        O      0.394330000000     0.250000000000     0.892540000000     0          
T        Si     0.163280000000     0.169920000000     0.845216666667     0          
T        Si     0.475665000000     0.373040000000     0.851043333333     0          
T        Si     0.396865000000     0.376770000000     0.902833333333     0          
T        Si     0.467380000000     0.325520000000     0.738803333333     0          
T        Si     0.457180000000     0.326625000000     0.982233333333     0          
T        Si     0.416270000000     0.327920000000     0.771516666667     0          
O        O      0.450930000000     0.406395000000     0.850226666667     0          
O        O      0.002820000000     0.357630000000     0.899886666667     0          
O        O      0.448250000000     0.340375000000     0.820433333333     0          
O        O      0.452710000000     0.329115000000     0.688640000000     0          
O        O      0.486445000000     0.286040000000     0.757643333333     0          
O        O      0.431940000000     0.330850000000     0.741653333333     0          
O        O      0.446195000000     0.286010000000     0.961926666667     0          
O        O      0.430580000000     0.356540000000     0.945796666667     0          
O        O      0.405190000000     0.285870000000     0.771936666667     0          
O        O      0.379755000000     0.353410000000     0.752480000000     0          
O        O      0.413560000000     0.406600000000     0.886393333333     0          
O        O      0.161020000000     0.213990000000     0.841923333333     0          
O        O      0.127060000000     0.153190000000     0.801460000000     0          
O        O      0.000000000000     0.386595000000     0.833333333333     0          
O        O      0.000000000000     0.335595000000     0.666666666667     0          
T        Si     0.336720000000     0.169920000000     0.821450000000     0          
T        Si     0.024335000000     0.373040000000     0.815623333333     0          
T        Si     0.103135000000     0.376770000000     0.763833333333     0          
T        Si     0.032620000000     0.325520000000     0.927863333333     0          
T        Si     0.042820000000     0.326625000000     0.684433333333     0          
T        Si     0.083730000000     0.327920000000     0.895150000000     0          
O        O      0.049070000000     0.406395000000     0.816440000000     0          
O        O      0.497180000000     0.357630000000     0.766780000000     0          
O        O      0.051750000000     0.340375000000     0.846233333333     0          
O        O      0.047290000000     0.329115000000     0.978026666667     0          
O        O      0.013555000000     0.286040000000     0.909023333333     0          
O        O      0.068060000000     0.330850000000     0.925013333333     0          
O        O      0.053805000000     0.286010000000     0.704740000000     0          
O        O      0.069420000000     0.356540000000     0.720870000000     0          
O        O      0.094810000000     0.285870000000     0.894730000000     0          
O        O      0.120245000000     0.353410000000     0.914186666667     0          
O        O      0.086440000000     0.406600000000     0.780273333333     0          
O        O      0.338980000000     0.213990000000     0.824743333333     0          
O        O      0.372940000000     0.153190000000     0.865206666667     0          
T        Si     0.086720000000     0.580080000000     0.154783333333     0          
T        Si     0.274335000000     0.876960000000     0.148956666667     0          
T        Si     0.353135000000     0.873230000000     0.097166666667     0          
T        Si     0.282620000000     0.924480000000     0.261196666667     0          
T        Si     0.292820000000     0.923375000000     0.017766666667     0          
T        Si     0.333730000000     0.922080000000     0.228483333333     0          
T        Si     0.335245000000     0.500000000000     0.198416666667     0          
T        Si     0.312150000000     0.500000000000     0.067106666667     0          
T        Si     0.115105000000     0.500000000000     0.173813333333     0          
T        Si     0.262470000000     0.500000000000     0.105970000000     0          
O        O      0.299070000000     0.843605000000     0.149773333333     0          
O        O      0.247180000000     0.892370000000     0.100113333333     0          
O        O      0.301750000000     0.909625000000     0.179566666667     0          
O        O      0.297290000000     0.920885000000     0.311360000000     0          
O        O      0.263555000000     0.963960000000     0.242356666667     0          
O        O      0.318060000000     0.919150000000     0.258346666667     0          
O        O      0.303805000000     0.963990000000     0.038073333333     0          
O        O      0.319420000000     0.893460000000     0.054203333333     0          
O        O      0.344810000000     0.964130000000     0.228063333333     0          
O        O      0.370245000000     0.896590000000     0.247520000000     0          
O        O      0.336440000000     0.843400000000     0.113606666667     0          
O        O      0.088980000000     0.536010000000     0.158076666667     0          
O        O      0.122940000000     0.596810000000     0.198540000000     0          
O        O      0.250000000000     0.863405000000     0.166666666667     0          
O        O      0.250000000000     0.914405000000     0.000000000000     0          
O        O      0.291750000000     0.500000000000     0.158050000000     0          
O        O      0.285495000000     0.500000000000     0.084190000000     0          
O        O      0.361695000000     0.500000000000     0.181063333333     0          
O        O      0.355670000000     0.500000000000     0.107460000000     0          
T        Si     0.413280000000     0.580080000000     0.178550000000     0          
T        Si     0.225665000000     0.876960000000     0.184376666667     0          
T        Si     0.146865000000     0.873230000000     0.236166666667     0          
T        Si     0.217380000000     0.924480000000     0.072136666667     0          
T        Si     0.207180000000     0.923375000000     0.315566666667     0          
T        Si     0.166270000000     0.922080000000     0.104850000000     0          
T        Si     0.164755000000     0.500000000000     0.134916666667     0          
T        Si     0.187850000000     0.500000000000     0.266226666667     0          
T        Si     0.384895000000     0.500000000000     0.159520000000     0          
T        Si     0.237530000000     0.500000000000     0.227363333333     0          
O        O      0.200930000000     0.843605000000     0.183560000000     0          
O        O      0.252820000000     0.892370000000     0.233220000000     0          
O        O      0.198250000000     0.909625000000     0.153766666667     0          
O        O      0.202710000000     0.920885000000     0.021973333333     0          
O        O      0.236445000000     0.963960000000     0.090976666667     0          
O        O      0.181940000000     0.919150000000     0.074986666667     0          
O        O      0.196195000000     0.963990000000     0.295260000000     0          
O        O      0.180580000000     0.893460000000     0.279130000000     0          
O        O      0.155190000000     0.964130000000     0.105270000000     0          
O        O      0.129755000000     0.896590000000     0.085813333333     0          
O        O      0.163560000000     0.843400000000     0.219726666667     0          
O        O      0.411020000000     0.536010000000     0.175256666667     0          
O        O      0.377060000000     0.596810000000     0.134793333333     0          
O        O      0.208250000000     0.500000000000     0.175283333333     0          
O        O      0.214505000000     0.500000000000     0.249143333333     0          
O        O      0.138305000000     0.500000000000     0.152270000000     0          
O        O      0.144330000000     0.500000000000     0.225873333333     0          
T        Si     0.413280000000     0.919920000000     0.178550000000     0          
T        Si     0.225665000000     0.623040000000     0.184376666667     0          
T        Si     0.146865000000     0.626770000000     0.236166666667     0          
T        Si     0.217380000000     0.575520000000     0.072136666667     0          
T        Si     0.207180000000     0.576625000000     0.315566666667     0          
T        Si     0.166270000000     0.577920000000     0.104850000000     0          
O        O      0.200930000000     0.656395000000     0.183560000000     0          
O        O      0.252820000000     0.607630000000     0.233220000000     0          
O        O      0.198250000000     0.590375000000     0.153766666667     0          
O        O      0.202710000000     0.579115000000     0.021973333333     0          
O        O      0.236445000000     0.536040000000     0.090976666667     0          
O        O      0.181940000000     0.580850000000     0.074986666667     0          
O        O      0.196195000000     0.536010000000     0.295260000000     0          
O        O      0.180580000000     0.606540000000     0.279130000000     0          
O        O      0.155190000000     0.535870000000     0.105270000000     0          
O        O      0.129755000000     0.603410000000     0.085813333333     0          
O        O      0.163560000000     0.656600000000     0.219726666667     0          
O        O      0.411020000000     0.963990000000     0.175256666667     0          
O        O      0.377060000000     0.903190000000     0.134793333333     0          
O        O      0.250000000000     0.636595000000     0.166666666667     0          
O        O      0.250000000000     0.585595000000     0.000000000000     0          
T        Si     0.086720000000     0.919920000000     0.154783333333     0          
T        Si     0.274335000000     0.623040000000     0.148956666667     0          
T        Si     0.353135000000     0.626770000000     0.097166666667     0          
T        Si     0.282620000000     0.575520000000     0.261196666667     0          
T        Si     0.292820000000     0.576625000000     0.017766666667     0          
T        Si     0.333730000000     0.577920000000     0.228483333333     0          
O        O      0.299070000000     0.656395000000     0.149773333333     0          
O        O      0.247180000000     0.607630000000     0.100113333333     0          
O        O      0.301750000000     0.590375000000     0.179566666667     0          
O        O      0.297290000000     0.579115000000     0.311360000000     0          
O        O      0.263555000000     0.536040000000     0.242356666667     0          
O        O      0.318060000000     0.580850000000     0.258346666667     0          
O        O      0.303805000000     0.536010000000     0.038073333333     0          
O        O      0.319420000000     0.606540000000     0.054203333333     0          
O        O      0.344810000000     0.535870000000     0.228063333333     0          
O        O      0.370245000000     0.603410000000     0.247520000000     0          
O        O      0.336440000000     0.656600000000     0.113606666667     0          
O        O      0.088980000000     0.963990000000     0.158076666667     0          
O        O      0.122940000000     0.903190000000     0.198540000000     0          
T        Si     0.336720000000     0.830080000000     0.154783333333     0          
T        Si     0.024335000000     0.626960000000     0.148956666667     0          
T        Si     0.103135000000     0.623230000000     0.097166666667     0          
T        Si     0.032620000000     0.674480000000     0.261196666667     0          
T        Si     0.042820000000     0.673375000000     0.017766666667     0          
T        Si     0.083730000000     0.672080000000     0.228483333333     0          
T        Si     0.085245000000     0.750000000000     0.198416666667     0          
T        Si     0.062150000000     0.750000000000     0.067106666667     0          
T        Si     0.365105000000     0.750000000000     0.173813333333     0          
T        Si     0.012470000000     0.750000000000     0.105970000000     0          
O        O      0.049070000000     0.593605000000     0.149773333333     0          
O        O      0.497180000000     0.642370000000     0.100113333333     0          
O        O      0.051750000000     0.659625000000     0.179566666667     0          
O        O      0.047290000000     0.670885000000     0.311360000000     0          
O        O      0.013555000000     0.713960000000     0.242356666667     0          
O        O      0.068060000000     0.669150000000     0.258346666667     0          
O        O      0.053805000000     0.713990000000     0.038073333333     0          
O        O      0.069420000000     0.643460000000     0.054203333333     0          
O        O      0.094810000000     0.714130000000     0.228063333333     0          
O        O      0.120245000000     0.646590000000     0.247520000000     0          
O        O      0.086440000000     0.593400000000     0.113606666667     0          
O        O      0.338980000000     0.786010000000     0.158076666667     0          
O        O      0.372940000000     0.846810000000     0.198540000000     0          
O        O      0.000000000000     0.613405000000     0.166666666667     0          
O        O      0.000000000000     0.664405000000     0.000000000000     0          
O        O      0.041750000000     0.750000000000     0.158050000000     0          
O        O      0.035495000000     0.750000000000     0.084190000000     0          
O        O      0.111695000000     0.750000000000     0.181063333333     0          
O        O      0.105670000000     0.750000000000     0.107460000000     0          
T        Si     0.163280000000     0.830080000000     0.178550000000     0          
T        Si     0.475665000000     0.626960000000     0.184376666667     0          
T        Si     0.396865000000     0.623230000000     0.236166666667     0          
T        Si     0.467380000000     0.674480000000     0.072136666667     0          
T        Si     0.457180000000     0.673375000000     0.315566666667     0          
T        Si     0.416270000000     0.672080000000     0.104850000000     0          
T        Si     0.414755000000     0.750000000000     0.134916666667     0          
T        Si     0.437850000000     0.750000000000     0.266226666667     0          
T        Si     0.134895000000     0.750000000000     0.159520000000     0          
T        Si     0.487530000000     0.750000000000     0.227363333333     0          
O        O      0.450930000000     0.593605000000     0.183560000000     0          
O        O      0.002820000000     0.642370000000     0.233220000000     0          
O        O      0.448250000000     0.659625000000     0.153766666667     0          
O        O      0.452710000000     0.670885000000     0.021973333333     0          
O        O      0.486445000000     0.713960000000     0.090976666667     0          
O        O      0.431940000000     0.669150000000     0.074986666667     0          
O        O      0.446195000000     0.713990000000     0.295260000000     0          
O        O      0.430580000000     0.643460000000     0.279130000000     0          
O        O      0.405190000000     0.714130000000     0.105270000000     0          
O        O      0.379755000000     0.646590000000     0.085813333333     0          
O        O      0.413560000000     0.593400000000     0.219726666667     0          
O        O      0.161020000000     0.786010000000     0.175256666667     0          
O        O      0.127060000000     0.846810000000     0.134793333333     0          
O        O      0.458250000000     0.750000000000     0.175283333333     0          
O        O      0.464505000000     0.750000000000     0.249143333333     0          
O        O      0.388305000000     0.750000000000     0.152270000000     0          
O        O      0.394330000000     0.750000000000     0.225873333333     0          
T        Si     0.163280000000     0.669920000000     0.178550000000     0          
T        Si     0.475665000000     0.873040000000     0.184376666667     0          
T        Si     0.396865000000     0.876770000000     0.236166666667     0          
T        Si     0.467380000000     0.825520000000     0.072136666667     0          
T        Si     0.457180000000     0.826625000000     0.315566666667     0          
T        Si     0.416270000000     0.827920000000     0.104850000000     0          
O        O      0.450930000000     0.906395000000     0.183560000000     0          
O        O      0.002820000000     0.857630000000     0.233220000000     0          
O        O      0.448250000000     0.840375000000     0.153766666667     0          
O        O      0.452710000000     0.829115000000     0.021973333333     0          
O        O      0.486445000000     0.786040000000     0.090976666667     0          
O        O      0.431940000000     0.830850000000     0.074986666667     0          
O        O      0.446195000000     0.786010000000     0.295260000000     0          
O        O      0.430580000000     0.856540000000     0.279130000000     0          
O        O      0.405190000000     0.785870000000     0.105270000000     0          
O        O      0.379755000000     0.853410000000     0.085813333333     0          
O        O      0.413560000000     0.906600000000     0.219726666667     0          
O        O      0.161020000000     0.713990000000     0.175256666667     0          
O        O      0.127060000000     0.653190000000     0.134793333333     0          
O        O      0.000000000000     0.886595000000     0.166666666667     0          
O        O      0.000000000000     0.835595000000     0.000000000000     0          
T        Si     0.336720000000     0.669920000000     0.154783333333     0          
T        Si     0.024335000000     0.873040000000     0.148956666667     0          
T        Si     0.103135000000     0.876770000000     0.097166666667     0          
T        Si     0.032620000000     0.825520000000     0.261196666667     0          
T        Si     0.042820000000     0.826625000000     0.017766666667     0          
T        Si     0.083730000000     0.827920000000     0.228483333333     0          
O        O      0.049070000000     0.906395000000     0.149773333333     0          
O        O      0.497180000000     0.857630000000     0.100113333333     0          
O        O      0.051750000000     0.840375000000     0.179566666667     0          
O        O      0.047290000000     0.829115000000     0.311360000000     0          
O        O      0.013555000000     0.786040000000     0.242356666667     0          
O        O      0.068060000000     0.830850000000     0.258346666667     0          
O        O      0.053805000000     0.786010000000     0.038073333333     0          
O        O      0.069420000000     0.856540000000     0.054203333333     0          
O        O      0.094810000000     0.785870000000     0.228063333333     0          
O        O      0.120245000000     0.853410000000     0.247520000000     0          
O        O      0.086440000000     0.906600000000     0.113606666667     0          
O        O      0.338980000000     0.713990000000     0.158076666667     0          
O        O      0.372940000000     0.653190000000     0.198540000000     0          
T        Si     0.086720000000     0.580080000000     0.488116666667     0          
T        Si     0.274335000000     0.876960000000     0.482290000000     0          
T        Si     0.353135000000     0.873230000000     0.430500000000     0          
T        Si     0.282620000000     0.924480000000     0.594530000000     0          
T        Si     0.292820000000     0.923375000000     0.351100000000     0          
T        Si     0.333730000000     0.922080000000     0.561816666667     0          
T        Si     0.335245000000     0.500000000000     0.531750000000     0          
T        Si     0.312150000000     0.500000000000     0.400440000000     0          
T        Si     0.115105000000     0.500000000000     0.507146666667     0          
T        Si     0.262470000000     0.500000000000     0.439303333333     0          
O        O      0.299070000000     0.843605000000     0.483106666667     0          
O        O      0.247180000000     0.892370000000     0.433446666667     0          
O        O      0.301750000000     0.909625000000     0.512900000000     0          
O        O      0.297290000000     0.920885000000     0.644693333333     0          
O        O      0.263555000000     0.963960000000     0.575690000000     0          
O        O      0.318060000000     0.919150000000     0.591680000000     0          
O        O      0.303805000000     0.963990000000     0.371406666667     0          
O        O      0.319420000000     0.893460000000     0.387536666667     0          
O        O      0.344810000000     0.964130000000     0.561396666667     0          
O        O      0.370245000000     0.896590000000     0.580853333333     0          
O        O      0.336440000000     0.843400000000     0.446940000000     0          
O        O      0.088980000000     0.536010000000     0.491410000000     0          
O        O      0.122940000000     0.596810000000     0.531873333333     0          
O        O      0.250000000000     0.863405000000     0.500000000000     0          
O        O      0.250000000000     0.914405000000     0.333333333333     0          
O        O      0.291750000000     0.500000000000     0.491383333333     0          
O        O      0.285495000000     0.500000000000     0.417523333333     0          
O        O      0.361695000000     0.500000000000     0.514396666667     0          
O        O      0.355670000000     0.500000000000     0.440793333333     0          
T        Si     0.413280000000     0.580080000000     0.511883333333     0          
T        Si     0.225665000000     0.876960000000     0.517710000000     0          
T        Si     0.146865000000     0.873230000000     0.569500000000     0          
T        Si     0.217380000000     0.924480000000     0.405470000000     0          
T        Si     0.207180000000     0.923375000000     0.648900000000     0          
T        Si     0.166270000000     0.922080000000     0.438183333333     0          
T        Si     0.164755000000     0.500000000000     0.468250000000     0          
T        Si     0.187850000000     0.500000000000     0.599560000000     0          
T        Si     0.384895000000     0.500000000000     0.492853333333     0          
T        Si     0.237530000000     0.500000000000     0.560696666667     0          
O        O      0.200930000000     0.843605000000     0.516893333333     0          
O        O      0.252820000000     0.892370000000     0.566553333333     0          
O        O      0.198250000000     0.909625000000     0.487100000000     0          
O        O      0.202710000000     0.920885000000     0.355306666667     0          
O        O      0.236445000000     0.963960000000     0.424310000000     0          
O        O      0.181940000000     0.919150000000     0.408320000000     0          
O        O      0.196195000000     0.963990000000     0.628593333333     0          
O        O      0.180580000000     0.893460000000     0.612463333333     0          
O        O      0.155190000000     0.964130000000     0.438603333333     0          
O        O      0.129755000000     0.896590000000     0.419146666667     0          
O        O      0.163560000000     0.843400000000     0.553060000000     0          
O        O      0.411020000000     0.536010000000     0.508590000000     0          
O        O      0.377060000000     0.596810000000     0.468126666667     0          
O        O      0.208250000000     0.500000000000     0.508616666667     0          
O        O      0.214505000000     0.500000000000     0.582476666667     0          
O        O      0.138305000000     0.500000000000     0.485603333333     0          
O        O      0.144330000000     0.500000000000     0.559206666667     0          
T        Si     0.413280000000     0.919920000000     0.511883333333     0          
T        Si     0.225665000000     0.623040000000     0.517710000000     0          
T        Si     0.146865000000     0.626770000000     0.569500000000     0          
T        Si     0.217380000000     0.575520000000     0.405470000000     0          
T        Si     0.207180000000     0.576625000000     0.648900000000     0          
T        Si     0.166270000000     0.577920000000     0.438183333333     0          
O        O      0.200930000000     0.656395000000     0.516893333333     0          
O        O      0.252820000000     0.607630000000     0.566553333333     0          
O        O      0.198250000000     0.590375000000     0.487100000000     0          
O        O      0.202710000000     0.579115000000     0.355306666667     0          
O        O      0.236445000000     0.536040000000     0.424310000000     0          
O        O      0.181940000000     0.580850000000     0.408320000000     0          
O        O      0.196195000000     0.536010000000     0.628593333333     0          
O        O      0.180580000000     0.606540000000     0.612463333333     0          
O        O      0.155190000000     0.535870000000     0.438603333333     0          
O        O      0.129755000000     0.603410000000     0.419146666667     0          
O        O      0.163560000000     0.656600000000     0.553060000000     0          
O        O      0.411020000000     0.963990000000     0.508590000000     0          
O        O      0.377060000000     0.903190000000     0.468126666667     0          
O        O      0.250000000000     0.636595000000     0.500000000000     0          
O        O      0.250000000000     0.585595000000     0.333333333333     0          
T        Si     0.086720000000     0.919920000000     0.488116666667     0          
T        Si     0.274335000000     0.623040000000     0.482290000000     0          
T        Si     0.353135000000     0.626770000000     0.430500000000     0          
T        Si     0.282620000000     0.575520000000     0.594530000000     0          
T        Si     0.292820000000     0.576625000000     0.351100000000     0          
T        Si     0.333730000000     0.577920000000     0.561816666667     0          
O        O      0.299070000000     0.656395000000     0.483106666667     0          
O        O      0.247180000000     0.607630000000     0.433446666667     0          
O        O      0.301750000000     0.590375000000     0.512900000000     0          
O        O      0.297290000000     0.579115000000     0.644693333333     0          
O        O      0.263555000000     0.536040000000     0.575690000000     0          
O        O      0.318060000000     0.580850000000     0.591680000000     0          
O        O      0.303805000000     0.536010000000     0.371406666667     0          
O        O      0.319420000000     0.606540000000     0.387536666667     0          
O        O      0.344810000000     0.535870000000     0.561396666667     0          
O        O      0.370245000000     0.603410000000     0.580853333333     0          
O        O      0.336440000000     0.656600000000     0.446940000000     0          
O        O      0.088980000000     0.963990000000     0.491410000000     0          
O        O      0.122940000000     0.903190000000     0.531873333333     0          
T        Si     0.336720000000     0.830080000000     0.488116666667     0          
T        Si     0.024335000000     0.626960000000     0.482290000000     0          
T        Si     0.103135000000     0.623230000000     0.430500000000     0          
T        Si     0.032620000000     0.674480000000     0.594530000000     0          
T        Si     0.042820000000     0.673375000000     0.351100000000     0          
T        Si     0.083730000000     0.672080000000     0.561816666667     0          
T        Si     0.085245000000     0.750000000000     0.531750000000     0          
T        Si     0.062150000000     0.750000000000     0.400440000000     0          
T        Si     0.365105000000     0.750000000000     0.507146666667     0          
T        Si     0.012470000000     0.750000000000     0.439303333333     0          
O        O      0.049070000000     0.593605000000     0.483106666667     0          
O        O      0.497180000000     0.642370000000     0.433446666667     0          
O        O      0.051750000000     0.659625000000     0.512900000000     0          
O        O      0.047290000000     0.670885000000     0.644693333333     0          
O        O      0.013555000000     0.713960000000     0.575690000000     0          
O        O      0.068060000000     0.669150000000     0.591680000000     0          
O        O      0.053805000000     0.713990000000     0.371406666667     0          
O        O      0.069420000000     0.643460000000     0.387536666667     0          
O        O      0.094810000000     0.714130000000     0.561396666667     0          
O        O      0.120245000000     0.646590000000     0.580853333333     0          
O        O      0.086440000000     0.593400000000     0.446940000000     0          
O        O      0.338980000000     0.786010000000     0.491410000000     0          
O        O      0.372940000000     0.846810000000     0.531873333333     0          
O        O      0.000000000000     0.613405000000     0.500000000000     0          
O        O      0.000000000000     0.664405000000     0.333333333333     0          
O        O      0.041750000000     0.750000000000     0.491383333333     0          
O        O      0.035495000000     0.750000000000     0.417523333333     0          
O        O      0.111695000000     0.750000000000     0.514396666667     0          
O        O      0.105670000000     0.750000000000     0.440793333333     0          
T        Si     0.163280000000     0.830080000000     0.511883333333     0          
T        Si     0.475665000000     0.626960000000     0.517710000000     0          
T        Si     0.396865000000     0.623230000000     0.569500000000     0          
T        Si     0.467380000000     0.674480000000     0.405470000000     0          
T        Si     0.457180000000     0.673375000000     0.648900000000     0          
T        Si     0.416270000000     0.672080000000     0.438183333333     0          
T        Si     0.414755000000     0.750000000000     0.468250000000     0          
T        Si     0.437850000000     0.750000000000     0.599560000000     0          
T        Si     0.134895000000     0.750000000000     0.492853333333     0          
T        Si     0.487530000000     0.750000000000     0.560696666667     0          
O        O      0.450930000000     0.593605000000     0.516893333333     0          
O        O      0.002820000000     0.642370000000     0.566553333333     0          
O        O      0.448250000000     0.659625000000     0.487100000000     0          
O        O      0.452710000000     0.670885000000     0.355306666667     0          
O        O      0.486445000000     0.713960000000     0.424310000000     0          
O        O      0.431940000000     0.669150000000     0.408320000000     0          
O        O      0.446195000000     0.713990000000     0.628593333333     0          
O        O      0.430580000000     0.643460000000     0.612463333333     0          
O        O      0.405190000000     0.714130000000     0.438603333333     0          
O        O      0.379755000000     0.646590000000     0.419146666667     0          
O        O      0.413560000000     0.593400000000     0.553060000000     0          
O        O      0.161020000000     0.786010000000     0.508590000000     0          
O        O      0.127060000000     0.846810000000     0.468126666667     0          
O        O      0.458250000000     0.750000000000     0.508616666667     0          
O        O      0.464505000000     0.750000000000     0.582476666667     0          
O        O      0.388305000000     0.750000000000     0.485603333333     0          
O        O      0.394330000000     0.750000000000     0.559206666667     0          
T        Si     0.163280000000     0.669920000000     0.511883333333     0          
T        Si     0.475665000000     0.873040000000     0.517710000000     0          
T        Si     0.396865000000     0.876770000000     0.569500000000     0          
T        Si     0.467380000000     0.825520000000     0.405470000000     0          
T        Si     0.457180000000     0.826625000000     0.648900000000     0          
T        Si     0.416270000000     0.827920000000     0.438183333333     0          
O        O      0.450930000000     0.906395000000     0.516893333333     0          
O        O      0.002820000000     0.857630000000     0.566553333333     0          
O        O      0.448250000000     0.840375000000     0.487100000000     0          
O        O      0.452710000000     0.829115000000     0.355306666667     0          
O        O      0.486445000000     0.786040000000     0.424310000000     0          
O        O      0.431940000000     0.830850000000     0.408320000000     0          
O        O      0.446195000000     0.786010000000     0.628593333333     0          
O        O      0.430580000000     0.856540000000     0.612463333333     0          
O        O      0.405190000000     0.785870000000     0.438603333333     0          
O        O      0.379755000000     0.853410000000     0.419146666667     0          
O        O      0.413560000000     0.906600000000     0.553060000000     0          
O        O      0.161020000000     0.713990000000     0.508590000000     0          
O        O      0.127060000000     0.653190000000     0.468126666667     0          
O        O      0.000000000000     0.886595000000     0.500000000000     0          
O        O      0.000000000000     0.835595000000     0.333333333333     0          
T        Si     0.336720000000     0.669920000000     0.488116666667     0          
T        Si     0.024335000000     0.873040000000     0.482290000000     0          
T        Si     0.103135000000     0.876770000000     0.430500000000     0          
T        Si     0.032620000000     0.825520000000     0.594530000000     0          
T        Si     0.042820000000     0.826625000000     0.351100000000     0          
T        Si     0.083730000000     0.827920000000     0.561816666667     0          
O        O      0.049070000000     0.906395000000     0.483106666667     0          
O        O      0.497180000000     0.857630000000     0.433446666667     0          
O        O      0.051750000000     0.840375000000     0.512900000000     0          
O        O      0.047290000000     0.829115000000     0.644693333333     0          
O        O      0.013555000000     0.786040000000     0.575690000000     0          
O        O      0.068060000000     0.830850000000     0.591680000000     0          
O        O      0.053805000000     0.786010000000     0.371406666667     0          
O        O      0.069420000000     0.856540000000     0.387536666667     0          
O        O      0.094810000000     0.785870000000     0.561396666667     0          
O        O      0.120245000000     0.853410000000     0.580853333333     0          
O        O      0.086440000000     0.906600000000     0.446940000000     0          
O        O      0.338980000000     0.713990000000     0.491410000000     0          
O        O      0.372940000000     0.653190000000     0.531873333333     0          
T        Si     0.086720000000     0.580080000000     0.821450000000     0          
T        Si     0.274335000000     0.876960000000     0.815623333333     0          
T        Si     0.353135000000     0.873230000000     0.763833333333     0          
T        Si     0.282620000000     0.924480000000     0.927863333333     0          
T        Si     0.292820000000     0.923375000000     0.684433333333     0          
T        Si     0.333730000000     0.922080000000     0.895150000000     0          
T        Si     0.335245000000     0.500000000000     0.865083333333     0          
T        Si     0.312150000000     0.500000000000     0.733773333333     0          
T        Si     0.115105000000     0.500000000000     0.840480000000     0          
T        Si     0.262470000000     0.500000000000     0.772636666667     0          
O        O      0.299070000000     0.843605000000     0.816440000000     0          
O        O      0.247180000000     0.892370000000     0.766780000000     0          
O        O      0.301750000000     0.909625000000     0.846233333333     0          
O        O      0.297290000000     0.920885000000     0.978026666667     0          
O        O      0.263555000000     0.963960000000     0.909023333333     0          
O        O      0.318060000000     0.919150000000     0.925013333333     0          
O        O      0.303805000000     0.963990000000     0.704740000000     0          
O        O      0.319420000000     0.893460000000     0.720870000000     0          
O        O      0.344810000000     0.964130000000     0.894730000000     0          
O        O      0.370245000000     0.896590000000     0.914186666667     0          
O        O      0.336440000000     0.843400000000     0.780273333333     0          
O        O      0.088980000000     0.536010000000     0.824743333333     0          
O        O      0.122940000000     0.596810000000     0.865206666667     0          
O        O      0.250000000000     0.863405000000     0.833333333333     0          
O        O      0.250000000000     0.914405000000     0.666666666667     0          
O        O      0.291750000000     0.500000000000     0.824716666667     0          
O        O      0.285495000000     0.500000000000     0.750856666667     0          
O        O      0.361695000000     0.500000000000     0.847730000000     0          
O        O      0.355670000000     0.500000000000     0.774126666667     0          
T        Si     0.413280000000     0.580080000000     0.845216666667     0          
T        Si     0.225665000000     0.876960000000     0.851043333333     0          
T        Si     0.146865000000     0.873230000000     0.902833333333     0          
T        Si     0.217380000000     0.924480000000     0.738803333333     0          
T        Si     0.207180000000     0.923375000000     0.982233333333     0          
T        Si     0.166270000000     0.922080000000     0.771516666667     0          
T        Si     0.164755000000     0.500000000000     0.801583333333     0          
T        Si     0.187850000000     0.500000000000     0.932893333333     0          
T        Si     0.384895000000     0.500000000000     0.826186666667     0          
T        Si     0.237530000000     0.500000000000     0.894030000000     0          
O        O      0.200930000000     0.843605000000     0.850226666667     0          
O        O      0.252820000000     0.892370000000     0.899886666667     0          
O        O      0.198250000000     0.909625000000     0.820433333333     0          
O        O      0.202710000000     0.920885000000     0.688640000000     0          
O        O      0.236445000000     0.963960000000     0.757643333333     0          
O        O      0.181940000000     0.919150000000     0.741653333333     0          
O        O      0.196195000000     0.963990000000     0.961926666667     0          
O        O      0.180580000000     0.893460000000     0.945796666667     0          
O        O      0.155190000000     0.964130000000     0.771936666667     0          
O        O      0.129755000000     0.896590000000     0.752480000000     0          
O        O      0.163560000000     0.843400000000     0.886393333333     0          
O        O      0.411020000000     0.536010000000     0.841923333333     0          
O        O      0.377060000000     0.596810000000     0.801460000000     0          
O        O      0.208250000000     0.500000000000     0.841950000000     0          
O        O      0.214505000000     0.500000000000     0.915810000000     0          
O        O      0.138305000000     0.500000000000     0.818936666667     0          
O        O      0.144330000000     0.500000000000     0.892540000000     0          
T        Si     0.413280000000     0.919920000000     0.845216666667     0          
T        Si     0.225665000000     0.623040000000     0.851043333333     0          
T        Si     0.146865000000     0.626770000000     0.902833333333     0          
T        Si     0.217380000000     0.575520000000     0.738803333333     0          
T        Si     0.207180000000     0.576625000000     0.982233333333     0          
T        Si     0.166270000000     0.577920000000     0.771516666667     0          
O        O      0.200930000000     0.656395000000     0.850226666667     0          
O        O      0.252820000000     0.607630000000     0.899886666667     0          
O        O      0.198250000000     0.590375000000     0.820433333333     0          
O        O      0.202710000000     0.579115000000     0.688640000000     0          
O        O      0.236445000000     0.536040000000     0.757643333333     0          
O        O      0.181940000000     0.580850000000     0.741653333333     0          
O        O      0.196195000000     0.536010000000     0.961926666667     0          
O        O      0.180580000000     0.606540000000     0.945796666667     0          
O        O      0.155190000000     0.535870000000     0.771936666667     0          
O        O      0.129755000000     0.603410000000     0.752480000000     0          
O        O      0.163560000000     0.656600000000     0.886393333333     0          
O        O      0.411020000000     0.963990000000     0.841923333333     0          
O        O      0.377060000000     0.903190000000     0.801460000000     0          
O        O      0.250000000000     0.636595000000     0.833333333333     0          
O        O      0.250000000000     0.585595000000     0.666666666667     0          
T        Si     0.086720000000     0.919920000000     0.821450000000     0          
T        Si     0.274335000000     0.623040000000     0.815623333333     0          
T        Si     0.353135000000     0.626770000000     0.763833333333     0          
T        Si     0.282620000000     0.575520000000     0.927863333333     0          
T        Si     0.292820000000     0.576625000000     0.684433333333     0          
T        Si     0.333730000000     0.577920000000     0.895150000000     0          
O        O      0.299070000000     0.656395000000     0.816440000000     0          
O        O      0.247180000000     0.607630000000     0.766780000000     0          
O        O      0.301750000000     0.590375000000     0.846233333333     0          
O        O      0.297290000000     0.579115000000     0.978026666667     0          
O        O      0.263555000000     0.536040000000     0.909023333333     0          
O        O      0.318060000000     0.580850000000     0.925013333333     0          
O        O      0.303805000000     0.536010000000     0.704740000000     0          
O        O      0.319420000000     0.606540000000     0.720870000000     0          
O        O      0.344810000000     0.535870000000     0.894730000000     0          
O        O      0.370245000000     0.603410000000     0.914186666667     0          
O        O      0.336440000000     0.656600000000     0.780273333333     0          
O        O      0.088980000000     0.963990000000     0.824743333333     0          
O        O      0.122940000000     0.903190000000     0.865206666667     0          
T        Si     0.336720000000     0.830080000000     0.821450000000     0          
T        Si     0.024335000000     0.626960000000     0.815623333333     0          
T        Si     0.103135000000     0.623230000000     0.763833333333     0          
T        Si     0.032620000000     0.674480000000     0.927863333333     0          
T        Si     0.042820000000     0.673375000000     0.684433333333     0          
T        Si     0.083730000000     0.672080000000     0.895150000000     0          
T        Si     0.085245000000     0.750000000000     0.865083333333     0          
T        Si     0.062150000000     0.750000000000     0.733773333333     0          
T        Si     0.365105000000     0.750000000000     0.840480000000     0          
T        Si     0.012470000000     0.750000000000     0.772636666667     0          
O        O      0.049070000000     0.593605000000     0.816440000000     0          
O        O      0.497180000000     0.642370000000     0.766780000000     0          
O        O      0.051750000000     0.659625000000     0.846233333333     0          
O        O      0.047290000000     0.670885000000     0.978026666667     0          
O        O      0.013555000000     0.713960000000     0.909023333333     0          
O        O      0.068060000000     0.669150000000     0.925013333333     0          
O        O      0.053805000000     0.713990000000     0.704740000000     0          
O        O      0.069420000000     0.643460000000     0.720870000000     0          
O        O      0.094810000000     0.714130000000     0.894730000000     0          
O        O      0.120245000000     0.646590000000     0.914186666667     0          
O        O      0.086440000000     0.593400000000     0.780273333333     0          
O        O      0.338980000000     0.786010000000     0.824743333333     0          
O        O      0.372940000000     0.846810000000     0.865206666667     0          
O        O      0.000000000000     0.613405000000     0.833333333333     0          
O        O      0.000000000000     0.664405000000     0.666666666667     0          
O        O      0.041750000000     0.750000000000     0.824716666667     0          
O        O      0.035495000000     0.750000000000     0.750856666667     0          
O        O      0.111695000000     0.750000000000     0.847730000000     0          
O        O      0.105670000000     0.750000000000     0.774126666667     0          
T        Si     0.163280000000     0.830080000000     0.845216666667     0          
T        Si     0.475665000000     0.626960000000     0.851043333333     0          
T        Si     0.396865000000     0.623230000000     0.902833333333     0          
T        Si     0.467380000000     0.674480000000     0.738803333333     0          
T        Si     0.457180000000     0.673375000000     0.982233333333     0          
T        Si     0.416270000000     0.672080000000     0.771516666667     0          
T        Si     0.414755000000     0.750000000000     0.801583333333     0          
T        Si     0.437850000000     0.750000000000     0.932893333333     0          
T        Si     0.134895000000     0.750000000000     0.826186666667     0          
T        Si     0.487530000000     0.750000000000     0.894030000000     0          
O        O      0.450930000000     0.593605000000     0.850226666667     0          
O        O      0.002820000000     0.642370000000     0.899886666667     0          
O        O      0.448250000000     0.659625000000     0.820433333333     0          
O        O      0.452710000000     0.670885000000     0.688640000000     0          
O        O      0.486445000000     0.713960000000     0.757643333333     0          
O        O      0.431940000000     0.669150000000     0.741653333333     0          
O        O      0.446195000000     0.713990000000     0.961926666667     0          
O        O      0.430580000000     0.643460000000     0.945796666667     0          
O        O      0.405190000000     0.714130000000     0.771936666667     0          
O        O      0.379755000000     0.646590000000     0.752480000000     0          
O        O      0.413560000000     0.593400000000     0.886393333333     0          
O        O      0.161020000000     0.786010000000     0.841923333333     0          
O        O      0.127060000000     0.846810000000     0.801460000000     0          
O        O      0.458250000000     0.750000000000     0.841950000000     0          
O        O      0.464505000000     0.750000000000     0.915810000000     0          
O        O      0.388305000000     0.750000000000     0.818936666667     0          
O        O      0.394330000000     0.750000000000     0.892540000000     0          
T        Si     0.163280000000     0.669920000000     0.845216666667     0          
T        Si     0.475665000000     0.873040000000     0.851043333333     0          
T        Si     0.396865000000     0.876770000000     0.902833333333     0          
T        Si     0.467380000000     0.825520000000     0.738803333333     0          
T        Si     0.457180000000     0.826625000000     0.982233333333     0          
T        Si     0.416270000000     0.827920000000     0.771516666667     0          
O        O      0.450930000000     0.906395000000     0.850226666667     0          
O        O      0.002820000000     0.857630000000     0.899886666667     0          
O        O      0.448250000000     0.840375000000     0.820433333333     0          
O        O      0.452710000000     0.829115000000     0.688640000000     0          
O        O      0.486445000000     0.786040000000     0.757643333333     0          
O        O      0.431940000000     0.830850000000     0.741653333333     0          
O        O      0.446195000000     0.786010000000     0.961926666667     0          
O        O      0.430580000000     0.856540000000     0.945796666667     0          
O        O      0.405190000000     0.785870000000     0.771936666667     0          
O        O      0.379755000000     0.853410000000     0.752480000000     0          
O        O      0.413560000000     0.906600000000     0.886393333333     0          
O        O      0.161020000000     0.713990000000     0.841923333333     0          
O        O      0.127060000000     0.653190000000     0.801460000000     0          
O        O      0.000000000000     0.886595000000     0.833333333333     0          
O        O      0.000000000000     0.835595000000     0.666666666667     0          
T        Si     0.336720000000     0.669920000000     0.821450000000     0          
T        Si     0.024335000000     0.873040000000     0.815623333333     0          
T        Si     0.103135000000     0.876770000000     0.763833333333     0          
T        Si     0.032620000000     0.825520000000     0.927863333333     0          
T        Si     0.042820000000     0.826625000000     0.684433333333     0          
T        Si     0.083730000000     0.827920000000     0.895150000000     0          
O        O      0.049070000000     0.906395000000     0.816440000000     0          
O        O      0.497180000000     0.857630000000     0.766780000000     0          
O        O      0.051750000000     0.840375000000     0.846233333333     0          
O        O      0.047290000000     0.829115000000     0.978026666667     0          
O        O      0.013555000000     0.786040000000     0.909023333333     0          
O        O      0.068060000000     0.830850000000     0.925013333333     0          
O        O      0.053805000000     0.786010000000     0.704740000000     0          
O        O      0.069420000000     0.856540000000     0.720870000000     0          
O        O      0.094810000000     0.785870000000     0.894730000000     0          
O        O      0.120245000000     0.853410000000     0.914186666667     0          
O        O      0.086440000000     0.906600000000     0.780273333333     0          
O        O      0.338980000000     0.713990000000     0.824743333333     0          
O        O      0.372940000000     0.653190000000     0.865206666667     0          
T        Si     0.586720000000     0.080080000000     0.154783333333     0          
T        Si     0.774335000000     0.376960000000     0.148956666667     0          
T        Si     0.853135000000     0.373230000000     0.097166666667     0          
T        Si     0.782620000000     0.424480000000     0.261196666667     0          
T        Si     0.792820000000     0.423375000000     0.017766666667     0          
T        Si     0.833730000000     0.422080000000     0.228483333333     0          
T        Si     0.835245000000     0.000000000000     0.198416666667     0          
T        Si     0.812150000000     0.000000000000     0.067106666667     0          
T        Si     0.615105000000     0.000000000000     0.173813333333     0          
T        Si     0.762470000000     0.000000000000     0.105970000000     0          
O        O      0.799070000000     0.343605000000     0.149773333333     0          
O        O      0.747180000000     0.392370000000     0.100113333333     0          
O        O      0.801750000000     0.409625000000     0.179566666667     0          
O        O      0.797290000000     0.420885000000     0.311360000000     0          
O        O      0.763555000000     0.463960000000     0.242356666667     0          
O        O      0.818060000000     0.419150000000     0.258346666667     0          
O        O      0.803805000000     0.463990000000     0.038073333333     0          
O        O      0.819420000000     0.393460000000     0.054203333333     0          
O        O      0.844810000000     0.464130000000     0.228063333333     0          
O        O      0.870245000000     0.396590000000     0.247520000000     0          
O        O      0.836440000000     0.343400000000     0.113606666667     0          
O        O      0.588980000000     0.036010000000     0.158076666667     0          
O        O      0.622940000000     0.096810000000     0.198540000000     0          
O        O      0.750000000000     0.363405000000     0.166666666667     0          
O        O      0.750000000000     0.414405000000     0.000000000000     0          
O        O      0.791750000000     0.000000000000     0.158050000000     0          
O        O      0.785495000000     0.000000000000     0.084190000000     0          
O        O      0.861695000000     0.000000000000     0.181063333333     0          
O        O      0.855670000000     0.000000000000     0.107460000000     0          
T        Si     0.913280000000     0.080080000000     0.178550000000     0          
T        Si     0.725665000000     0.376960000000     0.184376666667     0          
T        Si     0.646865000000     0.373230000000     0.236166666667     0          
T        Si     0.717380000000     0.424480000000     0.072136666667     0          
T        Si     0.707180000000     0.423375000000     0.315566666667     0          
T        Si     0.666270000000     0.422080000000     0.104850000000     0          
T        Si     0.664755000000     0.000000000000     0.134916666667     0          
T        Si     0.687850000000     0.000000000000     0.266226666667     0          
T        Si     0.884895000000     0.000000000000     0.159520000000     0          
T        Si     0.737530000000     0.000000000000     0.227363333333     0          
O        O      0.700930000000     0.343605000000     0.183560000000     0          
O        O      0.752820000000     0.392370000000     0.233220000000     0          
O        O      0.698250000000     0.409625000000     0.153766666667     0          
O        O      0.702710000000     0.420885000000     0.021973333333     0          
O        O      0.736445000000     0.463960000000     0.090976666667     0          
O        O      0.681940000000     0.419150000000     0.074986666667     0          
O        O      0.696195000000     0.463990000000     0.295260000000     0          
O        O      0.680580000000     0.393460000000     0.279130000000     0          
O        O      0.655190000000     0.464130000000     0.105270000000     0          
O        O      0.629755000000     0.396590000000     0.085813333333     0          
O        O      0.663560000000     0.343400000000     0.219726666667     0          
O        O      0.911020000000     0.036010000000     0.175256666667     0          
O        O      0.877060000000     0.096810000000     0.134793333333     0          
O        O      0.708250000000     0.000000000000     0.175283333333     0          
O        O      0.714505000000     0.000000000000     0.249143333333     0          
O        O      0.638305000000     0.000000000000     0.152270000000     0          
O        O      0.644330000000     0.000000000000     0.225873333333     0          
T        Si     0.913280000000     0.419920000000     0.178550000000     0          
T        Si     0.725665000000     0.123040000000     0.184376666667     0          
T        Si     0.646865000000     0.126770000000     0.236166666667     0          
T        Si     0.717380000000     0.075520000000     0.072136666667     0          
T        Si     0.707180000000     0.076625000000     0.315566666667     0          
T        Si     0.666270000000     0.077920000000     0.104850000000     0          
O        O      0.700930000000     0.156395000000     0.183560000000     0          
O        O      0.752820000000     0.107630000000     0.233220000000     0          
O        O      0.698250000000     0.090375000000     0.153766666667     0          
O        O      0.702710000000     0.079115000000     0.021973333333     0          
O        O      0.736445000000     0.036040000000     0.090976666667     0          
O        O      0.681940000000     0.080850000000     0.074986666667     0          
O        O      0.696195000000     0.036010000000     0.295260000000     0          
O        O      0.680580000000     0.106540000000     0.279130000000     0          
O        O      0.655190000000     0.035870000000     0.105270000000     0          
O        O      0.629755000000     0.103410000000     0.085813333333     0          
O        O      0.663560000000     0.156600000000     0.219726666667     0          
O        O      0.911020000000     0.463990000000     0.175256666667     0          
O        O      0.877060000000     0.403190000000     0.134793333333     0          
O        O      0.750000000000     0.136595000000     0.166666666667     0          
O        O      0.750000000000     0.085595000000     0.000000000000     0          
T        Si     0.586720000000     0.419920000000     0.154783333333     0          
T        Si     0.774335000000     0.123040000000     0.148956666667     0          
T        Si     0.853135000000     0.126770000000     0.097166666667     0          
T        Si     0.782620000000     0.075520000000     0.261196666667     0          
T        Si     0.792820000000     0.076625000000     0.017766666667     0          
T        Si     0.833730000000     0.077920000000     0.228483333333     0          
O        O      0.799070000000     0.156395000000     0.149773333333     0          
O        O      0.747180000000     0.107630000000     0.100113333333     0          
O        O      0.801750000000     0.090375000000     0.179566666667     0          
O        O      0.797290000000     0.079115000000     0.311360000000     0          
O        O      0.763555000000     0.036040000000     0.242356666667     0          
O        O      0.818060000000     0.080850000000     0.258346666667     0          
O        O      0.803805000000     0.036010000000     0.038073333333     0          
O        O      0.819420000000     0.106540000000     0.054203333333     0          
O        O      0.844810000000     0.035870000000     0.228063333333     0          
O        O      0.870245000000     0.103410000000     0.247520000000     0          
O        O      0.836440000000     0.156600000000     0.113606666667     0          
O        O      0.588980000000     0.463990000000     0.158076666667     0          
O        O      0.622940000000     0.403190000000     0.198540000000     0          
T        Si     0.836720000000     0.330080000000     0.154783333333     0          
T        Si     0.524335000000     0.126960000000     0.148956666667     0          
T        Si     0.603135000000     0.123230000000     0.097166666667     0          
T        Si     0.532620000000     0.174480000000     0.261196666667     0          
T        Si     0.542820000000     0.173375000000     0.017766666667     0          
T        Si     0.583730000000     0.172080000000     0.228483333333     0          
T        Si     0.585245000000     0.250000000000     0.198416666667     0          
T        Si     0.562150000000     0.250000000000     0.067106666667     0          
T        Si     0.865105000000     0.250000000000     0.173813333333     0          
T        Si     0.512470000000     0.250000000000     0.105970000000     0          
O        O      0.549070000000     0.093605000000     0.149773333333     0          
O        O      0.997180000000     0.142370000000     0.100113333333     0          
O        O      0.551750000000     0.159625000000     0.179566666667     0          
O        O      0.547290000000     0.170885000000     0.311360000000     0          
O        O      0.513555000000     0.213960000000     0.242356666667     0          
O        O      0.568060000000     0.169150000000     0.258346666667     0          
O        O      0.553805000000     0.213990000000     0.038073333333     0          
O        O      0.569420000000     0.143460000000     0.054203333333     0          
O        O      0.594810000000     0.214130000000     0.228063333333     0          
O        O      0.620245000000     0.146590000000     0.247520000000     0          
O        O      0.586440000000     0.093400000000     0.113606666667     0          
O        O      0.838980000000     0.286010000000     0.158076666667     0          
O        O      0.872940000000     0.346810000000     0.198540000000     0          
O        O      0.500000000000     0.113405000000     0.166666666667     0          
O        O      0.500000000000     0.164405000000     0.000000000000     0          
O        O      0.541750000000     0.250000000000     0.158050000000     0          
O        O      0.535495000000     0.250000000000     0.084190000000     0          
O        O      0.611695000000     0.250000000000     0.181063333333     0          
O        O      0.605670000000     0.250000000000     0.107460000000     0          
T        Si     0.663280000000     0.330080000000     0.178550000000     0          
T        Si     0.975665000000     0.126960000000     0.184376666667     0          
T        Si     0.896865000000     0.123230000000     0.236166666667     0          
T        Si     0.967380000000     0.174480000000     0.072136666667     0          
T        Si     0.957180000000     0.173375000000     0.315566666667     0          
T        Si     0.916270000000     0.172080000000     0.104850000000     0          
T        Si     0.914755000000     0.250000000000     0.134916666667     0          
T        Si     0.937850000000     0.250000000000     0.266226666667     0          
T        Si     0.634895000000     0.250000000000     0.159520000000     0          
T        Si     0.987530000000     0.250000000000     0.227363333333     0          
O        O      0.950930000000     0.093605000000     0.183560000000     0          
O        O      0.502820000000     0.142370000000     0.233220000000     0          
O        O      0.948250000000     0.159625000000     0.153766666667     0          
O        O      0.952710000000     0.170885000000     0.021973333333     0          
O        O      0.986445000000     0.213960000000     0.090976666667     0          
O        O      0.931940000000     0.169150000000     0.074986666667     0          
O        O      0.946195000000     0.213990000000     0.295260000000     0          
O        O      0.930580000000     0.143460000000     0.279130000000     0          
O        O      0.905190000000     0.214130000000     0.105270000000     0          
O        O      0.879755000000     0.146590000000     0.085813333333     0          
O        O      0.913560000000     0.093400000000     0.219726666667     0          
O        O      0.661020000000     0.286010000000     0.175256666667     0          
O        O      0.627060000000     0.346810000000     0.134793333333     0          
O        O      0.958250000000     0.250000000000     0.175283333333     0          
O        O      0.964505000000     0.250000000000     0.249143333333     0          
O        O      0.888305000000     0.250000000000     0.152270000000     0          
O        O      0.894330000000     0.250000000000     0.225873333333     0          
T        Si     0.663280000000     0.169920000000     0.178550000000     0          
T        Si     0.975665000000     0.373040000000     0.184376666667     0          
T        Si     0.896865000000     0.376770000000     0.236166666667     0          
T        Si     0.967380000000     0.325520000000     0.072136666667     0          
T        Si     0.957180000000     0.326625000000     0.315566666667     0          
T        Si     0.916270000000     0.327920000000     0.104850000000     0          
O        O      0.950930000000     0.406395000000     0.183560000000     0          
O        O      0.502820000000     0.357630000000     0.233220000000     0          
O        O      0.948250000000     0.340375000000     0.153766666667     0          
O        O      0.952710000000     0.329115000000     0.021973333333     0          
O        O      0.986445000000     0.286040000000     0.090976666667     0          
O        O      0.931940000000     0.330850000000     0.074986666667     0          
O        O      0.946195000000     0.286010000000     0.295260000000     0          
O        O      0.930580000000     0.356540000000     0.279130000000     0          
O        O      0.905190000000     0.285870000000     0.105270000000     0          
O        O      0.879755000000     0.353410000000     0.085813333333     0          
O        O      0.913560000000     0.406600000000     0.219726666667     0          
O        O      0.661020000000     0.213990000000     0.175256666667     0          
O        O      0.627060000000     0.153190000000     0.134793333333     0          
O        O      0.500000000000     0.386595000000     0.166666666667     0          
O        O      0.500000000000     0.335595000000     0.000000000000     0          
T        Si     0.836720000000     0.169920000000     0.154783333333     0          
T        Si     0.524335000000     0.373040000000     0.148956666667     0          
T        Si     0.603135000000     0.376770000000     0.097166666667     0          
T        Si     0.532620000000     0.325520000000     0.261196666667     0          
T        Si     0.542820000000     0.326625000000     0.017766666667     0          
T        Si     0.583730000000     0.327920000000     0.228483333333     0          
O        O      0.549070000000     0.406395000000     0.149773333333     0          
O        O      0.997180000000     0.357630000000     0.100113333333     0          
O        O      0.551750000000     0.340375000000     0.179566666667     0          
O        O      0.547290000000     0.329115000000     0.311360000000     0          
O        O      0.513555000000     0.286040000000     0.242356666667     0          
O        O      0.568060000000     0.330850000000     0.258346666667     0          
O        O      0.553805000000     0.286010000000     0.038073333333     0          
O        O      0.569420000000     0.356540000000     0.054203333333     0          
O        O      0.594810000000     0.285870000000     0.228063333333     0          
O        O      0.620245000000     0.353410000000     0.247520000000     0          
O        O      0.586440000000     0.406600000000     0.113606666667     0          
O        O      0.838980000000     0.213990000000     0.158076666667     0          
O        O      0.872940000000     0.153190000000     0.198540000000     0          
T        Si     0.586720000000     0.080080000000     0.488116666667     0          
T        Si     0.774335000000     0.376960000000     0.482290000000     0          
T        Si     0.853135000000     0.373230000000     0.430500000000     0          
T        Si     0.782620000000     0.424480000000     0.594530000000     0          
T        Si     0.792820000000     0.423375000000     0.351100000000     0          
T        Si     0.833730000000     0.422080000000     0.561816666667     0          
T        Si     0.835245000000     0.000000000000     0.531750000000     0          
T        Si     0.812150000000     0.000000000000     0.400440000000     0          
T        Si     0.615105000000     0.000000000000     0.507146666667     0          
T        Si     0.762470000000     0.000000000000     0.439303333333     0          
O        O      0.799070000000     0.343605000000     0.483106666667     0          
O        O      0.747180000000     0.392370000000     0.433446666667     0          
O        O      0.801750000000     0.409625000000     0.512900000000     0          
O        O      0.797290000000     0.420885000000     0.644693333333     0          
O        O      0.763555000000     0.463960000000     0.575690000000     0          
O        O      0.818060000000     0.419150000000     0.591680000000     0          
O        O      0.803805000000     0.463990000000     0.371406666667     0          
O        O      0.819420000000     0.393460000000     0.387536666667     0          
O        O      0.844810000000     0.464130000000     0.561396666667     0          
O        O      0.870245000000     0.396590000000     0.580853333333     0          
O        O      0.836440000000     0.343400000000     0.446940000000     0          
O        O      0.588980000000     0.036010000000     0.491410000000     0          
O        O      0.622940000000     0.096810000000     0.531873333333     0          
O        O      0.750000000000     0.363405000000     0.500000000000     0          
O        O      0.750000000000     0.414405000000     0.333333333333     0          
O        O      0.791750000000     0.000000000000     0.491383333333     0          
O        O      0.785495000000     0.000000000000     0.417523333333     0          
O        O      0.861695000000     0.000000000000     0.514396666667     0          
O        O      0.855670000000     0.000000000000     0.440793333333     0          
T        Si     0.913280000000     0.080080000000     0.511883333333     0          
T        Si     0.725665000000     0.376960000000     0.517710000000     0          
T        Si     0.646865000000     0.373230000000     0.569500000000     0          
T        Si     0.717380000000     0.424480000000     0.405470000000     0          
T        Si     0.707180000000     0.423375000000     0.648900000000     0          
T        Si     0.666270000000     0.422080000000     0.438183333333     0          
T        Si     0.664755000000     0.000000000000     0.468250000000     0          
T        Si     0.687850000000     0.000000000000     0.599560000000     0          
T        Si     0.884895000000     0.000000000000     0.492853333333     0          
T        Si     0.737530000000     0.000000000000     0.560696666667     0          
O        O      0.700930000000     0.343605000000     0.516893333333     0          
O        O      0.752820000000     0.392370000000     0.566553333333     0          
O        O      0.698250000000     0.409625000000     0.487100000000     0          
O        O      0.702710000000     0.420885000000     0.355306666667     0          
O        O      0.736445000000     0.463960000000     0.424310000000     0          
O        O      0.681940000000     0.419150000000     0.408320000000     0          
O        O      0.696195000000     0.463990000000     0.628593333333     0          
O        O      0.680580000000     0.393460000000     0.612463333333     0          
O        O      0.655190000000     0.464130000000     0.438603333333     0          
O        O      0.629755000000     0.396590000000     0.419146666667     0          
O        O      0.663560000000     0.343400000000     0.553060000000     0          
O        O      0.911020000000     0.036010000000     0.508590000000     0          
O        O      0.877060000000     0.096810000000     0.468126666667     0          
O        O      0.708250000000     0.000000000000     0.508616666667     0          
O        O      0.714505000000     0.000000000000     0.582476666667     0          
O        O      0.638305000000     0.000000000000     0.485603333333     0          
O        O      0.644330000000     0.000000000000     0.559206666667     0          
T        Si     0.913280000000     0.419920000000     0.511883333333     0          
T        Si     0.725665000000     0.123040000000     0.517710000000     0          
T        Si     0.646865000000     0.126770000000     0.569500000000     0          
T        Si     0.717380000000     0.075520000000     0.405470000000     0          
T        Si     0.707180000000     0.076625000000     0.648900000000     0          
T        Si     0.666270000000     0.077920000000     0.438183333333     0          
O        O      0.700930000000     0.156395000000     0.516893333333     0          
O        O      0.752820000000     0.107630000000     0.566553333333     0          
O        O      0.698250000000     0.090375000000     0.487100000000     0          
O        O      0.702710000000     0.079115000000     0.355306666667     0          
O        O      0.736445000000     0.036040000000     0.424310000000     0          
O        O      0.681940000000     0.080850000000     0.408320000000     0          
O        O      0.696195000000     0.036010000000     0.628593333333     0          
O        O      0.680580000000     0.106540000000     0.612463333333     0          
O        O      0.655190000000     0.035870000000     0.438603333333     0          
O        O      0.629755000000     0.103410000000     0.419146666667     0          
O        O      0.663560000000     0.156600000000     0.553060000000     0          
O        O      0.911020000000     0.463990000000     0.508590000000     0          
O        O      0.877060000000     0.403190000000     0.468126666667     0          
O        O      0.750000000000     0.136595000000     0.500000000000     0          
O        O      0.750000000000     0.085595000000     0.333333333333     0          
T        Si     0.586720000000     0.419920000000     0.488116666667     0          
T        Si     0.774335000000     0.123040000000     0.482290000000     0          
T        Si     0.853135000000     0.126770000000     0.430500000000     0          
T        Si     0.782620000000     0.075520000000     0.594530000000     0          
T        Si     0.792820000000     0.076625000000     0.351100000000     0          
T        Si     0.833730000000     0.077920000000     0.561816666667     0          
O        O      0.799070000000     0.156395000000     0.483106666667     0          
O        O      0.747180000000     0.107630000000     0.433446666667     0          
O        O      0.801750000000     0.090375000000     0.512900000000     0          
O        O      0.797290000000     0.079115000000     0.644693333333     0          
O        O      0.763555000000     0.036040000000     0.575690000000     0          
O        O      0.818060000000     0.080850000000     0.591680000000     0          
O        O      0.803805000000     0.036010000000     0.371406666667     0          
O        O      0.819420000000     0.106540000000     0.387536666667     0          
O        O      0.844810000000     0.035870000000     0.561396666667     0          
O        O      0.870245000000     0.103410000000     0.580853333333     0          
O        O      0.836440000000     0.156600000000     0.446940000000     0          
O        O      0.588980000000     0.463990000000     0.491410000000     0          
O        O      0.622940000000     0.403190000000     0.531873333333     0          
T        Si     0.836720000000     0.330080000000     0.488116666667     0          
T        Si     0.524335000000     0.126960000000     0.482290000000     0          
T        Si     0.603135000000     0.123230000000     0.430500000000     0          
T        Si     0.532620000000     0.174480000000     0.594530000000     0          
T        Si     0.542820000000     0.173375000000     0.351100000000     0          
T        Si     0.583730000000     0.172080000000     0.561816666667     0          
T        Si     0.585245000000     0.250000000000     0.531750000000     0          
T        Si     0.562150000000     0.250000000000     0.400440000000     0          
T        Si     0.865105000000     0.250000000000     0.507146666667     0          
T        Si     0.512470000000     0.250000000000     0.439303333333     0          
O        O      0.549070000000     0.093605000000     0.483106666667     0          
O        O      0.997180000000     0.142370000000     0.433446666667     0          
O        O      0.551750000000     0.159625000000     0.512900000000     0          
O        O      0.547290000000     0.170885000000     0.644693333333     0          
O        O      0.513555000000     0.213960000000     0.575690000000     0          
O        O      0.568060000000     0.169150000000     0.591680000000     0          
O        O      0.553805000000     0.213990000000     0.371406666667     0          
O        O      0.569420000000     0.143460000000     0.387536666667     0          
O        O      0.594810000000     0.214130000000     0.561396666667     0          
O        O      0.620245000000     0.146590000000     0.580853333333     0          
O        O      0.586440000000     0.093400000000     0.446940000000     0          
O        O      0.838980000000     0.286010000000     0.491410000000     0          
O        O      0.872940000000     0.346810000000     0.531873333333     0          
O        O      0.500000000000     0.113405000000     0.500000000000     0          
O        O      0.500000000000     0.164405000000     0.333333333333     0          
O        O      0.541750000000     0.250000000000     0.491383333333     0          
O        O      0.535495000000     0.250000000000     0.417523333333     0          
O        O      0.611695000000     0.250000000000     0.514396666667     0          
O        O      0.605670000000     0.250000000000     0.440793333333     0          
T        Si     0.663280000000     0.330080000000     0.511883333333     0          
T        Si     0.975665000000     0.126960000000     0.517710000000     0          
T        Si     0.896865000000     0.123230000000     0.569500000000     0          
T        Si     0.967380000000     0.174480000000     0.405470000000     0          
T        Si     0.957180000000     0.173375000000     0.648900000000     0          
T        Si     0.916270000000     0.172080000000     0.438183333333     0          
T        Si     0.914755000000     0.250000000000     0.468250000000     0          
T        Si     0.937850000000     0.250000000000     0.599560000000     0          
T        Si     0.634895000000     0.250000000000     0.492853333333     0          
T        Si     0.987530000000     0.250000000000     0.560696666667     0          
O        O      0.950930000000     0.093605000000     0.516893333333     0          
O        O      0.502820000000     0.142370000000     0.566553333333     0          
O        O      0.948250000000     0.159625000000     0.487100000000     0          
O        O      0.952710000000     0.170885000000     0.355306666667     0          
O        O      0.986445000000     0.213960000000     0.424310000000     0          
O        O      0.931940000000     0.169150000000     0.408320000000     0          
O        O      0.946195000000     0.213990000000     0.628593333333     0          
O        O      0.930580000000     0.143460000000     0.612463333333     0          
O        O      0.905190000000     0.214130000000     0.438603333333     0          
O        O      0.879755000000     0.146590000000     0.419146666667     0          
O        O      0.913560000000     0.093400000000     0.553060000000     0          
O        O      0.661020000000     0.286010000000     0.508590000000     0          
O        O      0.627060000000     0.346810000000     0.468126666667     0          
O        O      0.958250000000     0.250000000000     0.508616666667     0          
O        O      0.964505000000     0.250000000000     0.582476666667     0          
O        O      0.888305000000     0.250000000000     0.485603333333     0          
O        O      0.894330000000     0.250000000000     0.559206666667     0          
T        Si     0.663280000000     0.169920000000     0.511883333333     0          
T        Si     0.975665000000     0.373040000000     0.517710000000     0          
T        Si     0.896865000000     0.376770000000     0.569500000000     0          
T        Si     0.967380000000     0.325520000000     0.405470000000     0          
T        Si     0.957180000000     0.326625000000     0.648900000000     0          
T        Si     0.916270000000     0.327920000000     0.438183333333     0          
O        O      0.950930000000     0.406395000000     0.516893333333     0          
O        O      0.502820000000     0.357630000000     0.566553333333     0          
O        O      0.948250000000     0.340375000000     0.487100000000     0          
O        O      0.952710000000     0.329115000000     0.355306666667     0          
O        O      0.986445000000     0.286040000000     0.424310000000     0          
O        O      0.931940000000     0.330850000000     0.408320000000     0          
O        O      0.946195000000     0.286010000000     0.628593333333     0          
O        O      0.930580000000     0.356540000000     0.612463333333     0          
O        O      0.905190000000     0.285870000000     0.438603333333     0          
O        O      0.879755000000     0.353410000000     0.419146666667     0          
O        O      0.913560000000     0.406600000000     0.553060000000     0          
O        O      0.661020000000     0.213990000000     0.508590000000     0          
O        O      0.627060000000     0.153190000000     0.468126666667     0          
O        O      0.500000000000     0.386595000000     0.500000000000     0          
O        O      0.500000000000     0.335595000000     0.333333333333     0          
T        Si     0.836720000000     0.169920000000     0.488116666667     0          
T        Si     0.524335000000     0.373040000000     0.482290000000     0          
T        Si     0.603135000000     0.376770000000     0.430500000000     0          
T        Si     0.532620000000     0.325520000000     0.594530000000     0          
T        Si     0.542820000000     0.326625000000     0.351100000000     0          
T        Si     0.583730000000     0.327920000000     0.561816666667     0          
O        O      0.549070000000     0.406395000000     0.483106666667     0          
O        O      0.997180000000     0.357630000000     0.433446666667     0          
O        O      0.551750000000     0.340375000000     0.512900000000     0          
O        O      0.547290000000     0.329115000000     0.644693333333     0          
O        O      0.513555000000     0.286040000000     0.575690000000     0          
O        O      0.568060000000     0.330850000000     0.591680000000     0          
O        O      0.553805000000     0.286010000000     0.371406666667     0          
O        O      0.569420000000     0.356540000000     0.387536666667     0          
O        O      0.594810000000     0.285870000000     0.561396666667     0          
O        O      0.620245000000     0.353410000000     0.580853333333     0          
O        O      0.586440000000     0.406600000000     0.446940000000     0          
O        O      0.838980000000     0.213990000000     0.491410000000     0          
O        O      0.872940000000     0.153190000000     0.531873333333     0          
T        Si     0.586720000000     0.080080000000     0.821450000000     0          
T        Si     0.774335000000     0.376960000000     0.815623333333     0          
T        Si     0.853135000000     0.373230000000     0.763833333333     0          
T        Si     0.782620000000     0.424480000000     0.927863333333     0          
T        Si     0.792820000000     0.423375000000     0.684433333333     0          
T        Si     0.833730000000     0.422080000000     0.895150000000     0          
T        Si     0.835245000000     0.000000000000     0.865083333333     0          
T        Si     0.812150000000     0.000000000000     0.733773333333     0          
T        Si     0.615105000000     0.000000000000     0.840480000000     0          
T        Si     0.762470000000     0.000000000000     0.772636666667     0          
O        O      0.799070000000     0.343605000000     0.816440000000     0          
O        O      0.747180000000     0.392370000000     0.766780000000     0          
O        O      0.801750000000     0.409625000000     0.846233333333     0          
O        O      0.797290000000     0.420885000000     0.978026666667     0          
O        O      0.763555000000     0.463960000000     0.909023333333     0          
O        O      0.818060000000     0.419150000000     0.925013333333     0          
O        O      0.803805000000     0.463990000000     0.704740000000     0          
O        O      0.819420000000     0.393460000000     0.720870000000     0          
O        O      0.844810000000     0.464130000000     0.894730000000     0          
O        O      0.870245000000     0.396590000000     0.914186666667     0          
O        O      0.836440000000     0.343400000000     0.780273333333     0          
O        O      0.588980000000     0.036010000000     0.824743333333     0          
O        O      0.622940000000     0.096810000000     0.865206666667     0          
O        O      0.750000000000     0.363405000000     0.833333333333     0          
O        O      0.750000000000     0.414405000000     0.666666666667     0          
O        O      0.791750000000     0.000000000000     0.824716666667     0          
O        O      0.785495000000     0.000000000000     0.750856666667     0          
O        O      0.861695000000     0.000000000000     0.847730000000     0          
O        O      0.855670000000     0.000000000000     0.774126666667     0          
T        Si     0.913280000000     0.080080000000     0.845216666667     0          
T        Si     0.725665000000     0.376960000000     0.851043333333     0          
T        Si     0.646865000000     0.373230000000     0.902833333333     0          
T        Si     0.717380000000     0.424480000000     0.738803333333     0          
T        Si     0.707180000000     0.423375000000     0.982233333333     0          
T        Si     0.666270000000     0.422080000000     0.771516666667     0          
T        Si     0.664755000000     0.000000000000     0.801583333333     0          
T        Si     0.687850000000     0.000000000000     0.932893333333     0          
T        Si     0.884895000000     0.000000000000     0.826186666667     0          
T        Si     0.737530000000     0.000000000000     0.894030000000     0          
O        O      0.700930000000     0.343605000000     0.850226666667     0          
O        O      0.752820000000     0.392370000000     0.899886666667     0          
O        O      0.698250000000     0.409625000000     0.820433333333     0          
O        O      0.702710000000     0.420885000000     0.688640000000     0          
O        O      0.736445000000     0.463960000000     0.757643333333     0          
O        O      0.681940000000     0.419150000000     0.741653333333     0          
O        O      0.696195000000     0.463990000000     0.961926666667     0          
O        O      0.680580000000     0.393460000000     0.945796666667     0          
O        O      0.655190000000     0.464130000000     0.771936666667     0          
O        O      0.629755000000     0.396590000000     0.752480000000     0          
O        O      0.663560000000     0.343400000000     0.886393333333     0          
O        O      0.911020000000     0.036010000000     0.841923333333     0          
O        O      0.877060000000     0.096810000000     0.801460000000     0          
O        O      0.708250000000     0.000000000000     0.841950000000     0          
O        O      0.714505000000     0.000000000000     0.915810000000     0          
O        O      0.638305000000     0.000000000000     0.818936666667     0          
O        O      0.644330000000     0.000000000000     0.892540000000     0          
T        Si     0.913280000000     0.419920000000     0.845216666667     0          
T        Si     0.725665000000     0.123040000000     0.851043333333     0          
T        Si     0.646865000000     0.126770000000     0.902833333333     0          
T        Si     0.717380000000     0.075520000000     0.738803333333     0          
T        Si     0.707180000000     0.076625000000     0.982233333333     0          
T        Si     0.666270000000     0.077920000000     0.771516666667     0          
O        O      0.700930000000     0.156395000000     0.850226666667     0          
O        O      0.752820000000     0.107630000000     0.899886666667     0          
O        O      0.698250000000     0.090375000000     0.820433333333     0          
O        O      0.702710000000     0.079115000000     0.688640000000     0          
O        O      0.736445000000     0.036040000000     0.757643333333     0          
O        O      0.681940000000     0.080850000000     0.741653333333     0          
O        O      0.696195000000     0.036010000000     0.961926666667     0          
O        O      0.680580000000     0.106540000000     0.945796666667     0          
O        O      0.655190000000     0.035870000000     0.771936666667     0          
O        O      0.629755000000     0.103410000000     0.752480000000     0          
O        O      0.663560000000     0.156600000000     0.886393333333     0          
O        O      0.911020000000     0.463990000000     0.841923333333     0          
O        O      0.877060000000     0.403190000000     0.801460000000     0          
O        O      0.750000000000     0.136595000000     0.833333333333     0          
O        O      0.750000000000     0.085595000000     0.666666666667     0          
T        Si     0.586720000000     0.419920000000     0.821450000000     0          
T        Si     0.774335000000     0.123040000000     0.815623333333     0          
T        Si     0.853135000000     0.126770000000     0.763833333333     0          
T        Si     0.782620000000     0.075520000000     0.927863333333     0          
T        Si     0.792820000000     0.076625000000     0.684433333333     0          
T        Si     0.833730000000     0.077920000000     0.895150000000     0          
O        O      0.799070000000     0.156395000000     0.816440000000     0          
O        O      0.747180000000     0.107630000000     0.766780000000     0          
O        O      0.801750000000     0.090375000000     0.846233333333     0          
O        O      0.797290000000     0.079115000000     0.978026666667     0          
O        O      0.763555000000     0.036040000000     0.909023333333     0          
O        O      0.818060000000     0.080850000000     0.925013333333     0          
O        O      0.803805000000     0.036010000000     0.704740000000     0          
O        O      0.819420000000     0.106540000000     0.720870000000     0          
O        O      0.844810000000     0.035870000000     0.894730000000     0          
O        O      0.870245000000     0.103410000000     0.914186666667     0          
O        O      0.836440000000     0.156600000000     0.780273333333     0          
O        O      0.588980000000     0.463990000000     0.824743333333     0          
O        O      0.622940000000     0.403190000000     0.865206666667     0          
T        Si     0.836720000000     0.330080000000     0.821450000000     0          
T        Si     0.524335000000     0.126960000000     0.815623333333     0          
T        Si     0.603135000000     0.123230000000     0.763833333333     0          
T        Si     0.532620000000     0.174480000000     0.927863333333     0          
T        Si     0.542820000000     0.173375000000     0.684433333333     0          
T        Si     0.583730000000     0.172080000000     0.895150000000     0          
T        Si     0.585245000000     0.250000000000     0.865083333333     0          
T        Si     0.562150000000     0.250000000000     0.733773333333     0          
T        Si     0.865105000000     0.250000000000     0.840480000000     0          
T        Si     0.512470000000     0.250000000000     0.772636666667     0          
O        O      0.549070000000     0.093605000000     0.816440000000     0          
O        O      0.997180000000     0.142370000000     0.766780000000     0          
O        O      0.551750000000     0.159625000000     0.846233333333     0          
O        O      0.547290000000     0.170885000000     0.978026666667     0          
O        O      0.513555000000     0.213960000000     0.909023333333     0          
O        O      0.568060000000     0.169150000000     0.925013333333     0          
O        O      0.553805000000     0.213990000000     0.704740000000     0          
O        O      0.569420000000     0.143460000000     0.720870000000     0          
O        O      0.594810000000     0.214130000000     0.894730000000     0          
O        O      0.620245000000     0.146590000000     0.914186666667     0          
O        O      0.586440000000     0.093400000000     0.780273333333     0          
O        O      0.838980000000     0.286010000000     0.824743333333     0          
O        O      0.872940000000     0.346810000000     0.865206666667     0          
O        O      0.500000000000     0.113405000000     0.833333333333     0          
O        O      0.500000000000     0.164405000000     0.666666666667     0          
O        O      0.541750000000     0.250000000000     0.824716666667     0          
O        O      0.535495000000     0.250000000000     0.750856666667     0          
O        O      0.611695000000     0.250000000000     0.847730000000     0          
O        O      0.605670000000     0.250000000000     0.774126666667     0          
T        Si     0.663280000000     0.330080000000     0.845216666667     0          
T        Si     0.975665000000     0.126960000000     0.851043333333     0          
T        Si     0.896865000000     0.123230000000     0.902833333333     0          
T        Si     0.967380000000     0.174480000000     0.738803333333     0          
T        Si     0.957180000000     0.173375000000     0.982233333333     0          
T        Si     0.916270000000     0.172080000000     0.771516666667     0          
T        Si     0.914755000000     0.250000000000     0.801583333333     0          
T        Si     0.937850000000     0.250000000000     0.932893333333     0          
T        Si     0.634895000000     0.250000000000     0.826186666667     0          
T        Si     0.987530000000     0.250000000000     0.894030000000     0          
O        O      0.950930000000     0.093605000000     0.850226666667     0          
O        O      0.502820000000     0.142370000000     0.899886666667     0          
O        O      0.948250000000     0.159625000000     0.820433333333     0          
O        O      0.952710000000     0.170885000000     0.688640000000     0          
O        O      0.986445000000     0.213960000000     0.757643333333     0          
O        O      0.931940000000     0.169150000000     0.741653333333     0          
O        O      0.946195000000     0.213990000000     0.961926666667     0          
O        O      0.930580000000     0.143460000000     0.945796666667     0          
O        O      0.905190000000     0.214130000000     0.771936666667     0          
O        O      0.879755000000     0.146590000000     0.752480000000     0          
O        O      0.913560000000     0.093400000000     0.886393333333     0          
O        O      0.661020000000     0.286010000000     0.841923333333     0          
O        O      0.627060000000     0.346810000000     0.801460000000     0          
O        O      0.958250000000     0.250000000000     0.841950000000     0          
O        O      0.964505000000     0.250000000000     0.915810000000     0          
O        O      0.888305000000     0.250000000000     0.818936666667     0          
O        O      0.894330000000     0.250000000000     0.892540000000     0          
T        Si     0.663280000000     0.169920000000     0.845216666667     0          
T        Si     0.975665000000     0.373040000000     0.851043333333     0          
T        Si     0.896865000000     0.376770000000     0.902833333333     0          
T        Si     0.967380000000     0.325520000000     0.738803333333     0          
T        Si     0.957180000000     0.326625000000     0.982233333333     0          
T        Si     0.916270000000     0.327920000000     0.771516666667     0          
O        O      0.950930000000     0.406395000000     0.850226666667     0          
O        O      0.502820000000     0.357630000000     0.899886666667     0          
O        O      0.948250000000     0.340375000000     0.820433333333     0          
O        O      0.952710000000     0.329115000000     0.688640000000     0          
O        O      0.986445000000     0.286040000000     0.757643333333     0          
O        O      0.931940000000     0.330850000000     0.741653333333     0          
O        O      0.946195000000     0.286010000000     0.961926666667     0          
O        O      0.930580000000     0.356540000000     0.945796666667     0          
O        O      0.905190000000     0.285870000000     0.771936666667     0          
O        O      0.879755000000     0.353410000000     0.752480000000     0          
O        O      0.913560000000     0.406600000000     0.886393333333     0          
O        O      0.661020000000     0.213990000000     0.841923333333     0          
O        O      0.627060000000     0.153190000000     0.801460000000     0          
O        O      0.500000000000     0.386595000000     0.833333333333     0          
O        O      0.500000000000     0.335595000000     0.666666666667     0          
T        Si     0.836720000000     0.169920000000     0.821450000000     0          
T        Si     0.524335000000     0.373040000000     0.815623333333     0          
T        Si     0.603135000000     0.376770000000     0.763833333333     0          
T        Si     0.532620000000     0.325520000000     0.927863333333     0          
T        Si     0.542820000000     0.326625000000     0.684433333333     0          
T        Si     0.583730000000     0.327920000000     0.895150000000     0          
O        O      0.549070000000     0.406395000000     0.816440000000     0          
O        O      0.997180000000     0.357630000000     0.766780000000     0          
O        O      0.551750000000     0.340375000000     0.846233333333     0          
O        O      0.547290000000     0.329115000000     0.978026666667     0          
O        O      0.513555000000     0.286040000000     0.909023333333     0          
O        O      0.568060000000     0.330850000000     0.925013333333     0          
O        O      0.553805000000     0.286010000000     0.704740000000     0          
O        O      0.569420000000     0.356540000000     0.720870000000     0          
O        O      0.594810000000     0.285870000000     0.894730000000     0          
O        O      0.620245000000     0.353410000000     0.914186666667     0          
O        O      0.586440000000     0.406600000000     0.780273333333     0          
O        O      0.838980000000     0.213990000000     0.824743333333     0          
O        O      0.872940000000     0.153190000000     0.865206666667     0          
T        Si     0.586720000000     0.580080000000     0.154783333333     0          
T        Si     0.774335000000     0.876960000000     0.148956666667     0          
T        Si     0.853135000000     0.873230000000     0.097166666667     0          
T        Si     0.782620000000     0.924480000000     0.261196666667     0          
T        Si     0.792820000000     0.923375000000     0.017766666667     0          
T        Si     0.833730000000     0.922080000000     0.228483333333     0          
T        Si     0.835245000000     0.500000000000     0.198416666667     0          
T        Si     0.812150000000     0.500000000000     0.067106666667     0          
T        Si     0.615105000000     0.500000000000     0.173813333333     0          
T        Si     0.762470000000     0.500000000000     0.105970000000     0          
O        O      0.799070000000     0.843605000000     0.149773333333     0          
O        O      0.747180000000     0.892370000000     0.100113333333     0          
O        O      0.801750000000     0.909625000000     0.179566666667     0          
O        O      0.797290000000     0.920885000000     0.311360000000     0          
O        O      0.763555000000     0.963960000000     0.242356666667     0          
O        O      0.818060000000     0.919150000000     0.258346666667     0          
O        O      0.803805000000     0.963990000000     0.038073333333     0          
O        O      0.819420000000     0.893460000000     0.054203333333     0          
O        O      0.844810000000     0.964130000000     0.228063333333     0          
O        O      0.870245000000     0.896590000000     0.247520000000     0          
O        O      0.836440000000     0.843400000000     0.113606666667     0          
O        O      0.588980000000     0.536010000000     0.158076666667     0          
O        O      0.622940000000     0.596810000000     0.198540000000     0          
O        O      0.750000000000     0.863405000000     0.166666666667     0          
O        O      0.750000000000     0.914405000000     0.000000000000     0          
O        O      0.791750000000     0.500000000000     0.158050000000     0          
O        O      0.785495000000     0.500000000000     0.084190000000     0          
O        O      0.861695000000     0.500000000000     0.181063333333     0          
O        O      0.855670000000     0.500000000000     0.107460000000     0          
T        Si     0.913280000000     0.580080000000     0.178550000000     0          
T        Si     0.725665000000     0.876960000000     0.184376666667     0          
T        Si     0.646865000000     0.873230000000     0.236166666667     0          
T        Si     0.717380000000     0.924480000000     0.072136666667     0          
T        Si     0.707180000000     0.923375000000     0.315566666667     0          
T        Si     0.666270000000     0.922080000000     0.104850000000     0          
T        Si     0.664755000000     0.500000000000     0.134916666667     0          
T        Si     0.687850000000     0.500000000000     0.266226666667     0          
T        Si     0.884895000000     0.500000000000     0.159520000000     0          
T        Si     0.737530000000     0.500000000000     0.227363333333     0          
O        O      0.700930000000     0.843605000000     0.183560000000     0          
O        O      0.752820000000     0.892370000000     0.233220000000     0          
O        O      0.698250000000     0.909625000000     0.153766666667     0          
O        O      0.702710000000     0.920885000000     0.021973333333     0          
O        O      0.736445000000     0.963960000000     0.090976666667     0          
O        O      0.681940000000     0.919150000000     0.074986666667     0          
O        O      0.696195000000     0.963990000000     0.295260000000     0          
O        O      0.680580000000     0.893460000000     0.279130000000     0          
O        O      0.655190000000     0.964130000000     0.105270000000     0          
O        O      0.629755000000     0.896590000000     0.085813333333     0          
O        O      0.663560000000     0.843400000000     0.219726666667     0          
O        O      0.911020000000     0.536010000000     0.175256666667     0          
O        O      0.877060000000     0.596810000000     0.134793333333     0          
O        O      0.708250000000     0.500000000000     0.175283333333     0          
O        O      0.714505000000     0.500000000000     0.249143333333     0          
O        O      0.638305000000     0.500000000000     0.152270000000     0          
O        O      0.644330000000     0.500000000000     0.225873333333     0          
T        Si     0.913280000000     0.919920000000     0.178550000000     0          
T        Si     0.725665000000     0.623040000000     0.184376666667     0          
T        Si     0.646865000000     0.626770000000     0.236166666667     0          
T        Si     0.717380000000     0.575520000000     0.072136666667     0          
T        Si     0.707180000000     0.576625000000     0.315566666667     0          
T        Si     0.666270000000     0.577920000000     0.104850000000     0          
O        O      0.700930000000     0.656395000000     0.183560000000     0          
O        O      0.752820000000     0.607630000000     0.233220000000     0          
O        O      0.698250000000     0.590375000000     0.153766666667     0          
O        O      0.702710000000     0.579115000000     0.021973333333     0          
O        O      0.736445000000     0.536040000000     0.090976666667     0          
O        O      0.681940000000     0.580850000000     0.074986666667     0          
O        O      0.696195000000     0.536010000000     0.295260000000     0          
O        O      0.680580000000     0.606540000000     0.279130000000     0          
O        O      0.655190000000     0.535870000000     0.105270000000     0          
O        O      0.629755000000     0.603410000000     0.085813333333     0          
O        O      0.663560000000     0.656600000000     0.219726666667     0          
O        O      0.911020000000     0.963990000000     0.175256666667     0          
O        O      0.877060000000     0.903190000000     0.134793333333     0          
O        O      0.750000000000     0.636595000000     0.166666666667     0          
O        O      0.750000000000     0.585595000000     0.000000000000     0          
T        Si     0.586720000000     0.919920000000     0.154783333333     0          
T        Si     0.774335000000     0.623040000000     0.148956666667     0          
T        Si     0.853135000000     0.626770000000     0.097166666667     0          
T        Si     0.782620000000     0.575520000000     0.261196666667     0          
T        Si     0.792820000000     0.576625000000     0.017766666667     0          
T        Si     0.833730000000     0.577920000000     0.228483333333     0          
O        O      0.799070000000     0.656395000000     0.149773333333     0          
O        O      0.747180000000     0.607630000000     0.100113333333     0          
O        O      0.801750000000     0.590375000000     0.179566666667     0          
O        O      0.797290000000     0.579115000000     0.311360000000     0          
O        O      0.763555000000     0.536040000000     0.242356666667     0          
O        O      0.818060000000     0.580850000000     0.258346666667     0          
O        O      0.803805000000     0.536010000000     0.038073333333     0          
O        O      0.819420000000     0.606540000000     0.054203333333     0          
O        O      0.844810000000     0.535870000000     0.228063333333     0          
O        O      0.870245000000     0.603410000000     0.247520000000     0          
O        O      0.836440000000     0.656600000000     0.113606666667     0          
O        O      0.588980000000     0.963990000000     0.158076666667     0          
O        O      0.622940000000     0.903190000000     0.198540000000     0          
T        Si     0.836720000000     0.830080000000     0.154783333333     0          
T        Si     0.524335000000     0.626960000000     0.148956666667     0          
T        Si     0.603135000000     0.623230000000     0.097166666667     0          
T        Si     0.532620000000     0.674480000000     0.261196666667     0          
T        Si     0.542820000000     0.673375000000     0.017766666667     0          
T        Si     0.583730000000     0.672080000000     0.228483333333     0          
T        Si     0.585245000000     0.750000000000     0.198416666667     0          
T        Si     0.562150000000     0.750000000000     0.067106666667     0          
T        Si     0.865105000000     0.750000000000     0.173813333333     0          
T        Si     0.512470000000     0.750000000000     0.105970000000     0          
O        O      0.549070000000     0.593605000000     0.149773333333     0          
O        O      0.997180000000     0.642370000000     0.100113333333     0          
O        O      0.551750000000     0.659625000000     0.179566666667     0          
O        O      0.547290000000     0.670885000000     0.311360000000     0          
O        O      0.513555000000     0.713960000000     0.242356666667     0          
O        O      0.568060000000     0.669150000000     0.258346666667     0          
O        O      0.553805000000     0.713990000000     0.038073333333     0          
O        O      0.569420000000     0.643460000000     0.054203333333     0          
O        O      0.594810000000     0.714130000000     0.228063333333     0          
O        O      0.620245000000     0.646590000000     0.247520000000     0          
O        O      0.586440000000     0.593400000000     0.113606666667     0          
O        O      0.838980000000     0.786010000000     0.158076666667     0          
O        O      0.872940000000     0.846810000000     0.198540000000     0          
O        O      0.500000000000     0.613405000000     0.166666666667     0          
O        O      0.500000000000     0.664405000000     0.000000000000     0          
O        O      0.541750000000     0.750000000000     0.158050000000     0          
O        O      0.535495000000     0.750000000000     0.084190000000     0          
O        O      0.611695000000     0.750000000000     0.181063333333     0          
O        O      0.605670000000     0.750000000000     0.107460000000     0          
T        Si     0.663280000000     0.830080000000     0.178550000000     0          
T        Si     0.975665000000     0.626960000000     0.184376666667     0          
T        Si     0.896865000000     0.623230000000     0.236166666667     0          
T        Si     0.967380000000     0.674480000000     0.072136666667     0          
T        Si     0.957180000000     0.673375000000     0.315566666667     0          
T        Si     0.916270000000     0.672080000000     0.104850000000     0          
T        Si     0.914755000000     0.750000000000     0.134916666667     0          
T        Si     0.937850000000     0.750000000000     0.266226666667     0          
T        Si     0.634895000000     0.750000000000     0.159520000000     0          
T        Si     0.987530000000     0.750000000000     0.227363333333     0          
O        O      0.950930000000     0.593605000000     0.183560000000     0          
O        O      0.502820000000     0.642370000000     0.233220000000     0          
O        O      0.948250000000     0.659625000000     0.153766666667     0          
O        O      0.952710000000     0.670885000000     0.021973333333     0          
O        O      0.986445000000     0.713960000000     0.090976666667     0          
O        O      0.931940000000     0.669150000000     0.074986666667     0          
O        O      0.946195000000     0.713990000000     0.295260000000     0          
O        O      0.930580000000     0.643460000000     0.279130000000     0          
O        O      0.905190000000     0.714130000000     0.105270000000     0          
O        O      0.879755000000     0.646590000000     0.085813333333     0          
O        O      0.913560000000     0.593400000000     0.219726666667     0          
O        O      0.661020000000     0.786010000000     0.175256666667     0          
O        O      0.627060000000     0.846810000000     0.134793333333     0          
O        O      0.958250000000     0.750000000000     0.175283333333     0          
O        O      0.964505000000     0.750000000000     0.249143333333     0          
O        O      0.888305000000     0.750000000000     0.152270000000     0          
O        O      0.894330000000     0.750000000000     0.225873333333     0          
T        Si     0.663280000000     0.669920000000     0.178550000000     0          
T        Si     0.975665000000     0.873040000000     0.184376666667     0          
T        Si     0.896865000000     0.876770000000     0.236166666667     0          
T        Si     0.967380000000     0.825520000000     0.072136666667     0          
T        Si     0.957180000000     0.826625000000     0.315566666667     0          
T        Si     0.916270000000     0.827920000000     0.104850000000     0          
O        O      0.950930000000     0.906395000000     0.183560000000     0          
O        O      0.502820000000     0.857630000000     0.233220000000     0          
O        O      0.948250000000     0.840375000000     0.153766666667     0          
O        O      0.952710000000     0.829115000000     0.021973333333     0          
O        O      0.986445000000     0.786040000000     0.090976666667     0          
O        O      0.931940000000     0.830850000000     0.074986666667     0          
O        O      0.946195000000     0.786010000000     0.295260000000     0          
O        O      0.930580000000     0.856540000000     0.279130000000     0          
O        O      0.905190000000     0.785870000000     0.105270000000     0          
O        O      0.879755000000     0.853410000000     0.085813333333     0          
O        O      0.913560000000     0.906600000000     0.219726666667     0          
O        O      0.661020000000     0.713990000000     0.175256666667     0          
O        O      0.627060000000     0.653190000000     0.134793333333     0          
O        O      0.500000000000     0.886595000000     0.166666666667     0          
O        O      0.500000000000     0.835595000000     0.000000000000     0          
T        Si     0.836720000000     0.669920000000     0.154783333333     0          
T        Si     0.524335000000     0.873040000000     0.148956666667     0          
T        Si     0.603135000000     0.876770000000     0.097166666667     0          
T        Si     0.532620000000     0.825520000000     0.261196666667     0          
T        Si     0.542820000000     0.826625000000     0.017766666667     0          
T        Si     0.583730000000     0.827920000000     0.228483333333     0          
O        O      0.549070000000     0.906395000000     0.149773333333     0          
O        O      0.997180000000     0.857630000000     0.100113333333     0          
O        O      0.551750000000     0.840375000000     0.179566666667     0          
O        O      0.547290000000     0.829115000000     0.311360000000     0          
O        O      0.513555000000     0.786040000000     0.242356666667     0          
O        O      0.568060000000     0.830850000000     0.258346666667     0          
O        O      0.553805000000     0.786010000000     0.038073333333     0          
O        O      0.569420000000     0.856540000000     0.054203333333     0          
O        O      0.594810000000     0.785870000000     0.228063333333     0          
O        O      0.620245000000     0.853410000000     0.247520000000     0          
O        O      0.586440000000     0.906600000000     0.113606666667     0          
O        O      0.838980000000     0.713990000000     0.158076666667     0          
O        O      0.872940000000     0.653190000000     0.198540000000     0          
T        Si     0.586720000000     0.580080000000     0.488116666667     0          
T        Si     0.774335000000     0.876960000000     0.482290000000     0          
T        Si     0.853135000000     0.873230000000     0.430500000000     0          
T        Si     0.782620000000     0.924480000000     0.594530000000     0          
T        Si     0.792820000000     0.923375000000     0.351100000000     0          
T        Si     0.833730000000     0.922080000000     0.561816666667     0          
T        Si     0.835245000000     0.500000000000     0.531750000000     0          
T        Si     0.812150000000     0.500000000000     0.400440000000     0          
T        Si     0.615105000000     0.500000000000     0.507146666667     0          
T        Si     0.762470000000     0.500000000000     0.439303333333     0          
O        O      0.799070000000     0.843605000000     0.483106666667     0          
O        O      0.747180000000     0.892370000000     0.433446666667     0          
O        O      0.801750000000     0.909625000000     0.512900000000     0          
O        O      0.797290000000     0.920885000000     0.644693333333     0          
O        O      0.763555000000     0.963960000000     0.575690000000     0          
O        O      0.818060000000     0.919150000000     0.591680000000     0          
O        O      0.803805000000     0.963990000000     0.371406666667     0          
O        O      0.819420000000     0.893460000000     0.387536666667     0          
O        O      0.844810000000     0.964130000000     0.561396666667     0          
O        O      0.870245000000     0.896590000000     0.580853333333     0          
O        O      0.836440000000     0.843400000000     0.446940000000     0          
O        O      0.588980000000     0.536010000000     0.491410000000     0          
O        O      0.622940000000     0.596810000000     0.531873333333     0          
O        O      0.750000000000     0.863405000000     0.500000000000     0          
O        O      0.750000000000     0.914405000000     0.333333333333     0          
O        O      0.791750000000     0.500000000000     0.491383333333     0          
O        O      0.785495000000     0.500000000000     0.417523333333     0          
O        O      0.861695000000     0.500000000000     0.514396666667     0          
O        O      0.855670000000     0.500000000000     0.440793333333     0          
T        Si     0.913280000000     0.580080000000     0.511883333333     0          
T        Si     0.725665000000     0.876960000000     0.517710000000     0          
T        Si     0.646865000000     0.873230000000     0.569500000000     0          
T        Si     0.717380000000     0.924480000000     0.405470000000     0          
T        Si     0.707180000000     0.923375000000     0.648900000000     0          
T        Si     0.666270000000     0.922080000000     0.438183333333     0          
T        Si     0.664755000000     0.500000000000     0.468250000000     0          
T        Si     0.687850000000     0.500000000000     0.599560000000     0          
T        Si     0.884895000000     0.500000000000     0.492853333333     0          
T        Si     0.737530000000     0.500000000000     0.560696666667     0          
O        O      0.700930000000     0.843605000000     0.516893333333     0          
O        O      0.752820000000     0.892370000000     0.566553333333     0          
O        O      0.698250000000     0.909625000000     0.487100000000     0          
O        O      0.702710000000     0.920885000000     0.355306666667     0          
O        O      0.736445000000     0.963960000000     0.424310000000     0          
O        O      0.681940000000     0.919150000000     0.408320000000     0          
O        O      0.696195000000     0.963990000000     0.628593333333     0          
O        O      0.680580000000     0.893460000000     0.612463333333     0          
O        O      0.655190000000     0.964130000000     0.438603333333     0          
O        O      0.629755000000     0.896590000000     0.419146666667     0          
O        O      0.663560000000     0.843400000000     0.553060000000     0          
O        O      0.911020000000     0.536010000000     0.508590000000     0          
O        O      0.877060000000     0.596810000000     0.468126666667     0          
O        O      0.708250000000     0.500000000000     0.508616666667     0          
O        O      0.714505000000     0.500000000000     0.582476666667     0          
O        O      0.638305000000     0.500000000000     0.485603333333     0          
O        O      0.644330000000     0.500000000000     0.559206666667     0          
T        Si     0.913280000000     0.919920000000     0.511883333333     0          
T        Si     0.725665000000     0.623040000000     0.517710000000     0          
T        Si     0.646865000000     0.626770000000     0.569500000000     0          
T        Si     0.717380000000     0.575520000000     0.405470000000     0          
T        Si     0.707180000000     0.576625000000     0.648900000000     0          
T        Si     0.666270000000     0.577920000000     0.438183333333     0          
O        O      0.700930000000     0.656395000000     0.516893333333     0          
O        O      0.752820000000     0.607630000000     0.566553333333     0          
O        O      0.698250000000     0.590375000000     0.487100000000     0          
O        O      0.702710000000     0.579115000000     0.355306666667     0          
O        O      0.736445000000     0.536040000000     0.424310000000     0          
O        O      0.681940000000     0.580850000000     0.408320000000     0          
O        O      0.696195000000     0.536010000000     0.628593333333     0          
O        O      0.680580000000     0.606540000000     0.612463333333     0          
O        O      0.655190000000     0.535870000000     0.438603333333     0          
O        O      0.629755000000     0.603410000000     0.419146666667     0          
O        O      0.663560000000     0.656600000000     0.553060000000     0          
O        O      0.911020000000     0.963990000000     0.508590000000     0          
O        O      0.877060000000     0.903190000000     0.468126666667     0          
O        O      0.750000000000     0.636595000000     0.500000000000     0          
O        O      0.750000000000     0.585595000000     0.333333333333     0          
T        Si     0.586720000000     0.919920000000     0.488116666667     0          
T        Si     0.774335000000     0.623040000000     0.482290000000     0          
T        Si     0.853135000000     0.626770000000     0.430500000000     0          
T        Si     0.782620000000     0.575520000000     0.594530000000     0          
T        Si     0.792820000000     0.576625000000     0.351100000000     0          
T        Si     0.833730000000     0.577920000000     0.561816666667     0          
O        O      0.799070000000     0.656395000000     0.483106666667     0          
O        O      0.747180000000     0.607630000000     0.433446666667     0          
O        O      0.801750000000     0.590375000000     0.512900000000     0          
O        O      0.797290000000     0.579115000000     0.644693333333     0          
O        O      0.763555000000     0.536040000000     0.575690000000     0          
O        O      0.818060000000     0.580850000000     0.591680000000     0          
O        O      0.803805000000     0.536010000000     0.371406666667     0          
O        O      0.819420000000     0.606540000000     0.387536666667     0          
O        O      0.844810000000     0.535870000000     0.561396666667     0          
O        O      0.870245000000     0.603410000000     0.580853333333     0          
O        O      0.836440000000     0.656600000000     0.446940000000     0          
O        O      0.588980000000     0.963990000000     0.491410000000     0          
O        O      0.622940000000     0.903190000000     0.531873333333     0          
T        Si     0.836720000000     0.830080000000     0.488116666667     0          
T        Si     0.524335000000     0.626960000000     0.482290000000     0          
T        Si     0.603135000000     0.623230000000     0.430500000000     0          
T        Si     0.532620000000     0.674480000000     0.594530000000     0          
T        Si     0.542820000000     0.673375000000     0.351100000000     0          
T        Si     0.583730000000     0.672080000000     0.561816666667     0          
T        Si     0.585245000000     0.750000000000     0.531750000000     0          
T        Si     0.562150000000     0.750000000000     0.400440000000     0          
T        Si     0.865105000000     0.750000000000     0.507146666667     0          
T        Si     0.512470000000     0.750000000000     0.439303333333     0          
O        O      0.549070000000     0.593605000000     0.483106666667     0          
O        O      0.997180000000     0.642370000000     0.433446666667     0          
O        O      0.551750000000     0.659625000000     0.512900000000     0          
O        O      0.547290000000     0.670885000000     0.644693333333     0          
O        O      0.513555000000     0.713960000000     0.575690000000     0          
O        O      0.568060000000     0.669150000000     0.591680000000     0          
O        O      0.553805000000     0.713990000000     0.371406666667     0          
O        O      0.569420000000     0.643460000000     0.387536666667     0          
O        O      0.594810000000     0.714130000000     0.561396666667     0          
O        O      0.620245000000     0.646590000000     0.580853333333     0          
O        O      0.586440000000     0.593400000000     0.446940000000     0          
O        O      0.838980000000     0.786010000000     0.491410000000     0          
O        O      0.872940000000     0.846810000000     0.531873333333     0          
O        O      0.500000000000     0.613405000000     0.500000000000     0          
O        O      0.500000000000     0.664405000000     0.333333333333     0          
O        O      0.541750000000     0.750000000000     0.491383333333     0          
O        O      0.535495000000     0.750000000000     0.417523333333     0          
O        O      0.611695000000     0.750000000000     0.514396666667     0          
O        O      0.605670000000     0.750000000000     0.440793333333     0          
T        Si     0.663280000000     0.830080000000     0.511883333333     0          
T        Si     0.975665000000     0.626960000000     0.517710000000     0          
T        Si     0.896865000000     0.623230000000     0.569500000000     0          
T        Si     0.967380000000     0.674480000000     0.405470000000     0          
T        Si     0.957180000000     0.673375000000     0.648900000000     0          
T        Si     0.916270000000     0.672080000000     0.438183333333     0          
T        Si     0.914755000000     0.750000000000     0.468250000000     0          
T        Si     0.937850000000     0.750000000000     0.599560000000     0          
T        Si     0.634895000000     0.750000000000     0.492853333333     0          
T        Si     0.987530000000     0.750000000000     0.560696666667     0          
O        O      0.950930000000     0.593605000000     0.516893333333     0          
O        O      0.502820000000     0.642370000000     0.566553333333     0          
O        O      0.948250000000     0.659625000000     0.487100000000     0          
O        O      0.952710000000     0.670885000000     0.355306666667     0          
O        O      0.986445000000     0.713960000000     0.424310000000     0          
O        O      0.931940000000     0.669150000000     0.408320000000     0          
O        O      0.946195000000     0.713990000000     0.628593333333     0          
O        O      0.930580000000     0.643460000000     0.612463333333     0          
O        O      0.905190000000     0.714130000000     0.438603333333     0          
O        O      0.879755000000     0.646590000000     0.419146666667     0          
O        O      0.913560000000     0.593400000000     0.553060000000     0          
O        O      0.661020000000     0.786010000000     0.508590000000     0          
O        O      0.627060000000     0.846810000000     0.468126666667     0          
O        O      0.958250000000     0.750000000000     0.508616666667     0          
O        O      0.964505000000     0.750000000000     0.582476666667     0          
O        O      0.888305000000     0.750000000000     0.485603333333     0          
O        O      0.894330000000     0.750000000000     0.559206666667     0          
T        Si     0.663280000000     0.669920000000     0.511883333333     0          
T        Si     0.975665000000     0.873040000000     0.517710000000     0          
T        Si     0.896865000000     0.876770000000     0.569500000000     0          
T        Si     0.967380000000     0.825520000000     0.405470000000     0          
T        Si     0.957180000000     0.826625000000     0.648900000000     0          
T        Si     0.916270000000     0.827920000000     0.438183333333     0          
O        O      0.950930000000     0.906395000000     0.516893333333     0          
O        O      0.502820000000     0.857630000000     0.566553333333     0          
O        O      0.948250000000     0.840375000000     0.487100000000     0          
O        O      0.952710000000     0.829115000000     0.355306666667     0          
O        O      0.986445000000     0.786040000000     0.424310000000     0          
O        O      0.931940000000     0.830850000000     0.408320000000     0          
O        O      0.946195000000     0.786010000000     0.628593333333     0          
O        O      0.930580000000     0.856540000000     0.612463333333     0          
O        O      0.905190000000     0.785870000000     0.438603333333     0          
O        O      0.879755000000     0.853410000000     0.419146666667     0          
O        O      0.913560000000     0.906600000000     0.553060000000     0          
O        O      0.661020000000     0.713990000000     0.508590000000     0          
O        O      0.627060000000     0.653190000000     0.468126666667     0          
O        O      0.500000000000     0.886595000000     0.500000000000     0          
O        O      0.500000000000     0.835595000000     0.333333333333     0          
T        Si     0.836720000000     0.669920000000     0.488116666667     0          
T        Si     0.524335000000     0.873040000000     0.482290000000     0          
T        Si     0.603135000000     0.876770000000     0.430500000000     0          
T        Si     0.532620000000     0.825520000000     0.594530000000     0          
T        Si     0.542820000000     0.826625000000     0.351100000000     0          
T        Si     0.583730000000     0.827920000000     0.561816666667     0          
O        O      0.549070000000     0.906395000000     0.483106666667     0          
O        O      0.997180000000     0.857630000000     0.433446666667     0          
O        O      0.551750000000     0.840375000000     0.512900000000     0          
O        O      0.547290000000     0.829115000000     0.644693333333     0          
O        O      0.513555000000     0.786040000000     0.575690000000     0          
O        O      0.568060000000     0.830850000000     0.591680000000     0          
O        O      0.553805000000     0.786010000000     0.371406666667     0          
O        O      0.569420000000     0.856540000000     0.387536666667     0          
O        O      0.594810000000     0.785870000000     0.561396666667     0          
O        O      0.620245000000     0.853410000000     0.580853333333     0          
O        O      0.586440000000     0.906600000000     0.446940000000     0          
O        O      0.838980000000     0.713990000000     0.491410000000     0          
O        O      0.872940000000     0.653190000000     0.531873333333     0          
T        Si     0.586720000000     0.580080000000     0.821450000000     0          
T        Si     0.774335000000     0.876960000000     0.815623333333     0          
T        Si     0.853135000000     0.873230000000     0.763833333333     0          
T        Si     0.782620000000     0.924480000000     0.927863333333     0          
T        Si     0.792820000000     0.923375000000     0.684433333333     0          
T        Si     0.833730000000     0.922080000000     0.895150000000     0          
T        Si     0.835245000000     0.500000000000     0.865083333333     0          
T        Si     0.812150000000     0.500000000000     0.733773333333     0          
T        Si     0.615105000000     0.500000000000     0.840480000000     0          
T        Si     0.762470000000     0.500000000000     0.772636666667     0          
O        O      0.799070000000     0.843605000000     0.816440000000     0          
O        O      0.747180000000     0.892370000000     0.766780000000     0          
O        O      0.801750000000     0.909625000000     0.846233333333     0          
O        O      0.797290000000     0.920885000000     0.978026666667     0          
O        O      0.763555000000     0.963960000000     0.909023333333     0          
O        O      0.818060000000     0.919150000000     0.925013333333     0          
O        O      0.803805000000     0.963990000000     0.704740000000     0          
O        O      0.819420000000     0.893460000000     0.720870000000     0          
O        O      0.844810000000     0.964130000000     0.894730000000     0          
O        O      0.870245000000     0.896590000000     0.914186666667     0          
O        O      0.836440000000     0.843400000000     0.780273333333     0          
O        O      0.588980000000     0.536010000000     0.824743333333     0          
O        O      0.622940000000     0.596810000000     0.865206666667     0          
O        O      0.750000000000     0.863405000000     0.833333333333     0          
O        O      0.750000000000     0.914405000000     0.666666666667     0          
O        O      0.791750000000     0.500000000000     0.824716666667     0          
O        O      0.785495000000     0.500000000000     0.750856666667     0          
O        O      0.861695000000     0.500000000000     0.847730000000     0          
O        O      0.855670000000     0.500000000000     0.774126666667     0          
T        Si     0.913280000000     0.580080000000     0.845216666667     0          
T        Si     0.725665000000     0.876960000000     0.851043333333     0          
T        Si     0.646865000000     0.873230000000     0.902833333333     0          
T        Si     0.717380000000     0.924480000000     0.738803333333     0          
T        Si     0.707180000000     0.923375000000     0.982233333333     0          
T        Si     0.666270000000     0.922080000000     0.771516666667     0          
T        Si     0.664755000000     0.500000000000     0.801583333333     0          
T        Si     0.687850000000     0.500000000000     0.932893333333     0          
T        Si     0.884895000000     0.500000000000     0.826186666667     0          
T        Si     0.737530000000     0.500000000000     0.894030000000     0          
O        O      0.700930000000     0.843605000000     0.850226666667     0          
O        O      0.752820000000     0.892370000000     0.899886666667     0          
O        O      0.698250000000     0.909625000000     0.820433333333     0          
O        O      0.702710000000     0.920885000000     0.688640000000     0          
O        O      0.736445000000     0.963960000000     0.757643333333     0          
O        O      0.681940000000     0.919150000000     0.741653333333     0          
O        O      0.696195000000     0.963990000000     0.961926666667     0          
O        O      0.680580000000     0.893460000000     0.945796666667     0          
O        O      0.655190000000     0.964130000000     0.771936666667     0          
O        O      0.629755000000     0.896590000000     0.752480000000     0          
O        O      0.663560000000     0.843400000000     0.886393333333     0          
O        O      0.911020000000     0.536010000000     0.841923333333     0          
O        O      0.877060000000     0.596810000000     0.801460000000     0          
O        O      0.708250000000     0.500000000000     0.841950000000     0          
O        O      0.714505000000     0.500000000000     0.915810000000     0          
O        O      0.638305000000     0.500000000000     0.818936666667     0          
O        O      0.644330000000     0.500000000000     0.892540000000     0          
T        Si     0.913280000000     0.919920000000     0.845216666667     0          
T        Si     0.725665000000     0.623040000000     0.851043333333     0          
T        Si     0.646865000000     0.626770000000     0.902833333333     0          
T        Si     0.717380000000     0.575520000000     0.738803333333     0          
T        Si     0.707180000000     0.576625000000     0.982233333333     0          
T        Si     0.666270000000     0.577920000000     0.771516666667     0          
O        O      0.700930000000     0.656395000000     0.850226666667     0          
O        O      0.752820000000     0.607630000000     0.899886666667     0          
O        O      0.698250000000     0.590375000000     0.820433333333     0          
O        O      0.702710000000     0.579115000000     0.688640000000     0          
O        O      0.736445000000     0.536040000000     0.757643333333     0          
O        O      0.681940000000     0.580850000000     0.741653333333     0          
O        O      0.696195000000     0.536010000000     0.961926666667     0          
O        O      0.680580000000     0.606540000000     0.945796666667     0          
O        O      0.655190000000     0.535870000000     0.771936666667     0          
O        O      0.629755000000     0.603410000000     0.752480000000     0          
O        O      0.663560000000     0.656600000000     0.886393333333     0          
O        O      0.911020000000     0.963990000000     0.841923333333     0          
O        O      0.877060000000     0.903190000000     0.801460000000     0          
O        O      0.750000000000     0.636595000000     0.833333333333     0          
O        O      0.750000000000     0.585595000000     0.666666666667     0          
T        Si     0.586720000000     0.919920000000     0.821450000000     0          
T        Si     0.774335000000     0.623040000000     0.815623333333     0          
T        Si     0.853135000000     0.626770000000     0.763833333333     0          
T        Si     0.782620000000     0.575520000000     0.927863333333     0          
T        Si     0.792820000000     0.576625000000     0.684433333333     0          
T        Si     0.833730000000     0.577920000000     0.895150000000     0          
O        O      0.799070000000     0.656395000000     0.816440000000     0          
O        O      0.747180000000     0.607630000000     0.766780000000     0          
O        O      0.801750000000     0.590375000000     0.846233333333     0          
O        O      0.797290000000     0.579115000000     0.978026666667     0          
O        O      0.763555000000     0.536040000000     0.909023333333     0          
O        O      0.818060000000     0.580850000000     0.925013333333     0          
O        O      0.803805000000     0.536010000000     0.704740000000     0          
O        O      0.819420000000     0.606540000000     0.720870000000     0          
O        O      0.844810000000     0.535870000000     0.894730000000     0          
O        O      0.870245000000     0.603410000000     0.914186666667     0          
O        O      0.836440000000     0.656600000000     0.780273333333     0          
O        O      0.588980000000     0.963990000000     0.824743333333     0          
O        O      0.622940000000     0.903190000000     0.865206666667     0          
T        Si     0.836720000000     0.830080000000     0.821450000000     0          
T        Si     0.524335000000     0.626960000000     0.815623333333     0          
T        Si     0.603135000000     0.623230000000     0.763833333333     0          
T        Si     0.532620000000     0.674480000000     0.927863333333     0          
T        Si     0.542820000000     0.673375000000     0.684433333333     0          
T        Si     0.583730000000     0.672080000000     0.895150000000     0          
T        Si     0.585245000000     0.750000000000     0.865083333333     0          
T        Si     0.562150000000     0.750000000000     0.733773333333     0          
T        Si     0.865105000000     0.750000000000     0.840480000000     0          
T        Si     0.512470000000     0.750000000000     0.772636666667     0          
O        O      0.549070000000     0.593605000000     0.816440000000     0          
O        O      0.997180000000     0.642370000000     0.766780000000     0          
O        O      0.551750000000     0.659625000000     0.846233333333     0          
O        O      0.547290000000     0.670885000000     0.978026666667     0          
O        O      0.513555000000     0.713960000000     0.909023333333     0          
O        O      0.568060000000     0.669150000000     0.925013333333     0          
O        O      0.553805000000     0.713990000000     0.704740000000     0          
O        O      0.569420000000     0.643460000000     0.720870000000     0          
O        O      0.594810000000     0.714130000000     0.894730000000     0          
O        O      0.620245000000     0.646590000000     0.914186666667     0          
O        O      0.586440000000     0.593400000000     0.780273333333     0          
O        O      0.838980000000     0.786010000000     0.824743333333     0          
O        O      0.872940000000     0.846810000000     0.865206666667     0          
O        O      0.500000000000     0.613405000000     0.833333333333     0          
O        O      0.500000000000     0.664405000000     0.666666666667     0          
O        O      0.541750000000     0.750000000000     0.824716666667     0          
O        O      0.535495000000     0.750000000000     0.750856666667     0          
O        O      0.611695000000     0.750000000000     0.847730000000     0          
O        O      0.605670000000     0.750000000000     0.774126666667     0          
T        Si     0.663280000000     0.830080000000     0.845216666667     0          
T        Si     0.975665000000     0.626960000000     0.851043333333     0          
T        Si     0.896865000000     0.623230000000     0.902833333333     0          
T        Si     0.967380000000     0.674480000000     0.738803333333     0          
T        Si     0.957180000000     0.673375000000     0.982233333333     0          
T        Si     0.916270000000     0.672080000000     0.771516666667     0          
T        Si     0.914755000000     0.750000000000     0.801583333333     0          
T        Si     0.937850000000     0.750000000000     0.932893333333     0          
T        Si     0.634895000000     0.750000000000     0.826186666667     0          
T        Si     0.987530000000     0.750000000000     0.894030000000     0          
O        O      0.950930000000     0.593605000000     0.850226666667     0          
O        O      0.502820000000     0.642370000000     0.899886666667     0          
O        O      0.948250000000     0.659625000000     0.820433333333     0          
O        O      0.952710000000     0.670885000000     0.688640000000     0          
O        O      0.986445000000     0.713960000000     0.757643333333     0          
O        O      0.931940000000     0.669150000000     0.741653333333     0          
O        O      0.946195000000     0.713990000000     0.961926666667     0          
O        O      0.930580000000     0.643460000000     0.945796666667     0          
O        O      0.905190000000     0.714130000000     0.771936666667     0          
O        O      0.879755000000     0.646590000000     0.752480000000     0          
O        O      0.913560000000     0.593400000000     0.886393333333     0          
O        O      0.661020000000     0.786010000000     0.841923333333     0          
O        O      0.627060000000     0.846810000000     0.801460000000     0          
O        O      0.958250000000     0.750000000000     0.841950000000     0          
O        O      0.964505000000     0.750000000000     0.915810000000     0          
O        O      0.888305000000     0.750000000000     0.818936666667     0          
O        O      0.894330000000     0.750000000000     0.892540000000     0          
T        Si     0.663280000000     0.669920000000     0.845216666667     0          
T        Si     0.975665000000     0.873040000000     0.851043333333     0          
T        Si     0.896865000000     0.876770000000     0.902833333333     0          
T        Si     0.967380000000     0.825520000000     0.738803333333     0          
T        Si     0.957180000000     0.826625000000     0.982233333333     0          
T        Si     0.916270000000     0.827920000000     0.771516666667     0          
O        O      0.950930000000     0.906395000000     0.850226666667     0          
O        O      0.502820000000     0.857630000000     0.899886666667     0          
O        O      0.948250000000     0.840375000000     0.820433333333     0          
O        O      0.952710000000     0.829115000000     0.688640000000     0          
O        O      0.986445000000     0.786040000000     0.757643333333     0          
O        O      0.931940000000     0.830850000000     0.741653333333     0          
O        O      0.946195000000     0.786010000000     0.961926666667     0          
O        O      0.930580000000     0.856540000000     0.945796666667     0          
O        O      0.905190000000     0.785870000000     0.771936666667     0          
O        O      0.879755000000     0.853410000000     0.752480000000     0          
O        O      0.913560000000     0.906600000000     0.886393333333     0          
O        O      0.661020000000     0.713990000000     0.841923333333     0          
O        O      0.627060000000     0.653190000000     0.801460000000     0          
O        O      0.500000000000     0.886595000000     0.833333333333     0          
O        O      0.500000000000     0.835595000000     0.666666666667     0          
T        Si     0.836720000000     0.669920000000     0.821450000000     0          
T        Si     0.524335000000     0.873040000000     0.815623333333     0          
T        Si     0.603135000000     0.876770000000     0.763833333333     0          
T        Si     0.532620000000     0.825520000000     0.927863333333     0          
T        Si     0.542820000000     0.826625000000     0.684433333333     0          
T        Si     0.583730000000     0.827920000000     0.895150000000     0          
O        O      0.549070000000     0.906395000000     0.816440000000     0          
O        O      0.997180000000     0.857630000000     0.766780000000     0          
O        O      0.551750000000     0.840375000000     0.846233333333     0          
O        O      0.547290000000     0.829115000000     0.978026666667     0          
O        O      0.513555000000     0.786040000000     0.909023333333     0          
O        O      0.568060000000     0.830850000000     0.925013333333     0          
O        O      0.553805000000     0.786010000000     0.704740000000     0          
O        O      0.569420000000     0.856540000000     0.720870000000     0          
O        O      0.594810000000     0.785870000000     0.894730000000     0          
O        O      0.620245000000     0.853410000000     0.914186666667     0          
O        O      0.586440000000     0.906600000000     0.780273333333     0          
O        O      0.838980000000     0.713990000000     0.824743333333     0          
O        O      0.872940000000     0.653190000000     0.865206666667     0          


