data_zeolite

_audit_creation_method RASPA-1.0
_audit_creation_date 2021-6-7
_audit_author_name ''

_cell_length_a    29.421
_cell_length_b    47.292
_cell_length_c    40.484
_cell_angle_alpha 90
_cell_angle_beta  90
_cell_angle_gamma 90
_cell_volume      56328.5

_symmetry_cell_setting          orthorhombic
_symmetry_space_group_name_Hall 'P 1'
_symmetry_space_group_name_H-M  'P 1'
_symmetry_Int_Tables_number     1

_symmetry_equiv_pos_as_xyz 'x,y,z'

loop_
_atom_site_label
_atom_site_type_symbol
_atom_site_fract_x
_atom_site_fract_y
_atom_site_fract_z
_atom_site_charge
O        O      0.211400000000     0.180350000000     0.172500000000     0          
O        O      0.288633333333     0.152450000000     0.171500000000     0          
O        O      0.288633333333     0.208100000000     0.171500000000     0          
O        O      0.264366666667     0.180400000000     0.224850000000     0          
O        O      0.211333333333     0.319550000000     0.222800000000     0          
O        O      0.288600000000     0.291500000000     0.221800000000     0          
O        O      0.288633333333     0.347050000000     0.221500000000     0          
O        O      0.000000000000     0.235100000000     0.125000000000     0          
O        O      0.000000000000     0.254850000000     0.185400000000     0          
O        O      0.000000000000     0.250000000000     0.250000000000     0          
O        O      0.000000000000     0.383500000000     0.185000000000     0          
O        O      0.000000000000     0.388550000000     0.249750000000     0          
O        O      0.000000000000     0.125400000000     0.125000000000     0          
O        O      0.000000000000     0.105800000000     0.185600000000     0          
O        O      0.000000000000     0.404300000000     0.125000000000     0          
T        Si     0.263300000000     0.180300000000     0.185150000000     0          
T        Si     0.263266666667     0.319350000000     0.235400000000     0          
T        Si     0.000000000000     0.226450000000     0.163450000000     0          
T        Si     0.000000000000     0.272000000000     0.219750000000     0          
T        Si     0.000000000000     0.366600000000     0.219500000000     0          
T        Si     0.000000000000     0.134100000000     0.163450000000     0          
T        Si     0.000000000000     0.089150000000     0.220250000000     0          
T        Si     0.000000000000     0.412250000000     0.163650000000     0          
O        O      0.121933333333     0.319650000000     0.422500000000     0          
O        O      0.044700000000     0.347550000000     0.421500000000     0          
O        O      0.044700000000     0.291900000000     0.421500000000     0          
O        O      0.068966666667     0.319600000000     0.474850000000     0          
O        O      0.122000000000     0.180450000000     0.472800000000     0          
O        O      0.044733333333     0.208500000000     0.471800000000     0          
O        O      0.044700000000     0.152950000000     0.471500000000     0          
O        O      0.000000000000     0.264900000000     0.375000000000     0          
O        O      0.000000000000     0.245150000000     0.435400000000     0          
O        O      0.000000000000     0.250000000000     0.000000000000     0          
O        O      0.000000000000     0.116500000000     0.435000000000     0          
O        O      0.000000000000     0.111450000000     0.499750000000     0          
O        O      0.000000000000     0.374600000000     0.375000000000     0          
O        O      0.000000000000     0.394200000000     0.435600000000     0          
O        O      0.000000000000     0.095700000000     0.375000000000     0          
T        Si     0.070033333333     0.319700000000     0.435150000000     0          
T        Si     0.070066666667     0.180650000000     0.485400000000     0          
T        Si     0.000000000000     0.273550000000     0.413450000000     0          
T        Si     0.000000000000     0.228000000000     0.469750000000     0          
T        Si     0.000000000000     0.133400000000     0.469500000000     0          
T        Si     0.000000000000     0.365900000000     0.413450000000     0          
T        Si     0.000000000000     0.410850000000     0.470250000000     0          
T        Si     0.000000000000     0.087750000000     0.413650000000     0          
O        O      0.211400000000     0.319650000000     0.327500000000     0          
O        O      0.288633333333     0.347550000000     0.328500000000     0          
O        O      0.288633333333     0.291900000000     0.328500000000     0          
O        O      0.264366666667     0.319600000000     0.275150000000     0          
O        O      0.211333333333     0.180450000000     0.277200000000     0          
O        O      0.288600000000     0.208500000000     0.278200000000     0          
O        O      0.288633333333     0.152950000000     0.278500000000     0          
O        O      0.000000000000     0.245150000000     0.314600000000     0          
O        O      0.000000000000     0.116500000000     0.315000000000     0          
O        O      0.000000000000     0.111450000000     0.250250000000     0          
O        O      0.000000000000     0.394200000000     0.314400000000     0          
T        Si     0.263300000000     0.319700000000     0.314850000000     0          
T        Si     0.263266666667     0.180650000000     0.264600000000     0          
T        Si     0.000000000000     0.273550000000     0.336550000000     0          
T        Si     0.000000000000     0.228000000000     0.280250000000     0          
T        Si     0.000000000000     0.133400000000     0.280500000000     0          
T        Si     0.000000000000     0.365900000000     0.336550000000     0          
T        Si     0.000000000000     0.410850000000     0.279750000000     0          
T        Si     0.000000000000     0.087750000000     0.336350000000     0          
O        O      0.121933333333     0.180350000000     0.077500000000     0          
O        O      0.044700000000     0.152450000000     0.078500000000     0          
O        O      0.044700000000     0.208100000000     0.078500000000     0          
O        O      0.068966666667     0.180400000000     0.025150000000     0          
O        O      0.122000000000     0.319550000000     0.027200000000     0          
O        O      0.044733333333     0.291500000000     0.028200000000     0          
O        O      0.044700000000     0.347050000000     0.028500000000     0          
O        O      0.000000000000     0.254850000000     0.064600000000     0          
O        O      0.000000000000     0.383500000000     0.065000000000     0          
O        O      0.000000000000     0.388550000000     0.000250000000     0          
O        O      0.000000000000     0.105800000000     0.064400000000     0          
T        Si     0.070033333333     0.180300000000     0.064850000000     0          
T        Si     0.070066666667     0.319350000000     0.014600000000     0          
T        Si     0.000000000000     0.226450000000     0.086550000000     0          
T        Si     0.000000000000     0.272000000000     0.030250000000     0          
T        Si     0.000000000000     0.366600000000     0.030500000000     0          
T        Si     0.000000000000     0.134100000000     0.086550000000     0          
T        Si     0.000000000000     0.089150000000     0.029750000000     0          
T        Si     0.000000000000     0.412250000000     0.086350000000     0          
O        O      0.121933333333     0.319650000000     0.327500000000     0          
O        O      0.044700000000     0.347550000000     0.328500000000     0          
O        O      0.044700000000     0.291900000000     0.328500000000     0          
O        O      0.068966666667     0.319600000000     0.275150000000     0          
O        O      0.122000000000     0.180450000000     0.277200000000     0          
O        O      0.044733333333     0.208500000000     0.278200000000     0          
O        O      0.044700000000     0.152950000000     0.278500000000     0          
T        Si     0.070033333333     0.319700000000     0.314850000000     0          
T        Si     0.070066666667     0.180650000000     0.264600000000     0          
O        O      0.211400000000     0.180350000000     0.077500000000     0          
O        O      0.288633333333     0.152450000000     0.078500000000     0          
O        O      0.288633333333     0.208100000000     0.078500000000     0          
O        O      0.264366666667     0.180400000000     0.025150000000     0          
O        O      0.211333333333     0.319550000000     0.027200000000     0          
O        O      0.288600000000     0.291500000000     0.028200000000     0          
O        O      0.288633333333     0.347050000000     0.028500000000     0          
T        Si     0.263300000000     0.180300000000     0.064850000000     0          
T        Si     0.263266666667     0.319350000000     0.014600000000     0          
O        O      0.121933333333     0.180350000000     0.172500000000     0          
O        O      0.044700000000     0.152450000000     0.171500000000     0          
O        O      0.044700000000     0.208100000000     0.171500000000     0          
O        O      0.068966666667     0.180400000000     0.224850000000     0          
O        O      0.122000000000     0.319550000000     0.222800000000     0          
O        O      0.044733333333     0.291500000000     0.221800000000     0          
O        O      0.044700000000     0.347050000000     0.221500000000     0          
T        Si     0.070033333333     0.180300000000     0.185150000000     0          
T        Si     0.070066666667     0.319350000000     0.235400000000     0          
O        O      0.211400000000     0.319650000000     0.422500000000     0          
O        O      0.288633333333     0.347550000000     0.421500000000     0          
O        O      0.288633333333     0.291900000000     0.421500000000     0          
O        O      0.264366666667     0.319600000000     0.474850000000     0          
O        O      0.211333333333     0.180450000000     0.472800000000     0          
O        O      0.288600000000     0.208500000000     0.471800000000     0          
O        O      0.288633333333     0.152950000000     0.471500000000     0          
T        Si     0.263300000000     0.319700000000     0.435150000000     0          
T        Si     0.263266666667     0.180650000000     0.485400000000     0          
O        O      0.044733333333     0.430350000000     0.172500000000     0          
O        O      0.121966666667     0.402450000000     0.171500000000     0          
O        O      0.121966666667     0.458100000000     0.171500000000     0          
O        O      0.097700000000     0.430400000000     0.224850000000     0          
O        O      0.044666666667     0.069550000000     0.222800000000     0          
O        O      0.121933333333     0.041500000000     0.221800000000     0          
O        O      0.121966666667     0.097050000000     0.221500000000     0          
O        O      0.166666666667     0.485100000000     0.125000000000     0          
O        O      0.166666666667     0.004850000000     0.185400000000     0          
O        O      0.166666666667     0.000000000000     0.250000000000     0          
O        O      0.166666666667     0.133500000000     0.185000000000     0          
O        O      0.166666666667     0.138550000000     0.249750000000     0          
O        O      0.166666666667     0.375400000000     0.125000000000     0          
O        O      0.166666666667     0.355800000000     0.185600000000     0          
O        O      0.166666666667     0.154300000000     0.125000000000     0          
T        Si     0.096633333333     0.430300000000     0.185150000000     0          
T        Si     0.096600000000     0.069350000000     0.235400000000     0          
T        Si     0.166666666667     0.476450000000     0.163450000000     0          
T        Si     0.166666666667     0.022000000000     0.219750000000     0          
T        Si     0.166666666667     0.116600000000     0.219500000000     0          
T        Si     0.166666666667     0.384100000000     0.163450000000     0          
T        Si     0.166666666667     0.339150000000     0.220250000000     0          
T        Si     0.166666666667     0.162250000000     0.163650000000     0          
O        O      0.288600000000     0.069650000000     0.422500000000     0          
O        O      0.211366666667     0.097550000000     0.421500000000     0          
O        O      0.211366666667     0.041900000000     0.421500000000     0          
O        O      0.235633333333     0.069600000000     0.474850000000     0          
O        O      0.288666666667     0.430450000000     0.472800000000     0          
O        O      0.211400000000     0.458500000000     0.471800000000     0          
O        O      0.211366666667     0.402950000000     0.471500000000     0          
O        O      0.166666666667     0.014900000000     0.375000000000     0          
O        O      0.166666666667     0.495150000000     0.435400000000     0          
O        O      0.166666666667     0.000000000000     0.000000000000     0          
O        O      0.166666666667     0.366500000000     0.435000000000     0          
O        O      0.166666666667     0.361450000000     0.499750000000     0          
O        O      0.166666666667     0.124600000000     0.375000000000     0          
O        O      0.166666666667     0.144200000000     0.435600000000     0          
O        O      0.166666666667     0.345700000000     0.375000000000     0          
T        Si     0.236700000000     0.069700000000     0.435150000000     0          
T        Si     0.236733333333     0.430650000000     0.485400000000     0          
T        Si     0.166666666667     0.023550000000     0.413450000000     0          
T        Si     0.166666666667     0.478000000000     0.469750000000     0          
T        Si     0.166666666667     0.383400000000     0.469500000000     0          
T        Si     0.166666666667     0.115900000000     0.413450000000     0          
T        Si     0.166666666667     0.160850000000     0.470250000000     0          
T        Si     0.166666666667     0.337750000000     0.413650000000     0          
O        O      0.044733333333     0.069650000000     0.327500000000     0          
O        O      0.121966666667     0.097550000000     0.328500000000     0          
O        O      0.121966666667     0.041900000000     0.328500000000     0          
O        O      0.097700000000     0.069600000000     0.275150000000     0          
O        O      0.044666666667     0.430450000000     0.277200000000     0          
O        O      0.121933333333     0.458500000000     0.278200000000     0          
O        O      0.121966666667     0.402950000000     0.278500000000     0          
O        O      0.166666666667     0.495150000000     0.314600000000     0          
O        O      0.166666666667     0.366500000000     0.315000000000     0          
O        O      0.166666666667     0.361450000000     0.250250000000     0          
O        O      0.166666666667     0.144200000000     0.314400000000     0          
T        Si     0.096633333333     0.069700000000     0.314850000000     0          
T        Si     0.096600000000     0.430650000000     0.264600000000     0          
T        Si     0.166666666667     0.023550000000     0.336550000000     0          
T        Si     0.166666666667     0.478000000000     0.280250000000     0          
T        Si     0.166666666667     0.383400000000     0.280500000000     0          
T        Si     0.166666666667     0.115900000000     0.336550000000     0          
T        Si     0.166666666667     0.160850000000     0.279750000000     0          
T        Si     0.166666666667     0.337750000000     0.336350000000     0          
O        O      0.288600000000     0.430350000000     0.077500000000     0          
O        O      0.211366666667     0.402450000000     0.078500000000     0          
O        O      0.211366666667     0.458100000000     0.078500000000     0          
O        O      0.235633333333     0.430400000000     0.025150000000     0          
O        O      0.288666666667     0.069550000000     0.027200000000     0          
O        O      0.211400000000     0.041500000000     0.028200000000     0          
O        O      0.211366666667     0.097050000000     0.028500000000     0          
O        O      0.166666666667     0.004850000000     0.064600000000     0          
O        O      0.166666666667     0.133500000000     0.065000000000     0          
O        O      0.166666666667     0.138550000000     0.000250000000     0          
O        O      0.166666666667     0.355800000000     0.064400000000     0          
T        Si     0.236700000000     0.430300000000     0.064850000000     0          
T        Si     0.236733333333     0.069350000000     0.014600000000     0          
T        Si     0.166666666667     0.476450000000     0.086550000000     0          
T        Si     0.166666666667     0.022000000000     0.030250000000     0          
T        Si     0.166666666667     0.116600000000     0.030500000000     0          
T        Si     0.166666666667     0.384100000000     0.086550000000     0          
T        Si     0.166666666667     0.339150000000     0.029750000000     0          
T        Si     0.166666666667     0.162250000000     0.086350000000     0          
O        O      0.288600000000     0.069650000000     0.327500000000     0          
O        O      0.211366666667     0.097550000000     0.328500000000     0          
O        O      0.211366666667     0.041900000000     0.328500000000     0          
O        O      0.235633333333     0.069600000000     0.275150000000     0          
O        O      0.288666666667     0.430450000000     0.277200000000     0          
O        O      0.211400000000     0.458500000000     0.278200000000     0          
O        O      0.211366666667     0.402950000000     0.278500000000     0          
T        Si     0.236700000000     0.069700000000     0.314850000000     0          
T        Si     0.236733333333     0.430650000000     0.264600000000     0          
O        O      0.044733333333     0.430350000000     0.077500000000     0          
O        O      0.121966666667     0.402450000000     0.078500000000     0          
O        O      0.121966666667     0.458100000000     0.078500000000     0          
O        O      0.097700000000     0.430400000000     0.025150000000     0          
O        O      0.044666666667     0.069550000000     0.027200000000     0          
O        O      0.121933333333     0.041500000000     0.028200000000     0          
O        O      0.121966666667     0.097050000000     0.028500000000     0          
T        Si     0.096633333333     0.430300000000     0.064850000000     0          
T        Si     0.096600000000     0.069350000000     0.014600000000     0          
O        O      0.288600000000     0.430350000000     0.172500000000     0          
O        O      0.211366666667     0.402450000000     0.171500000000     0          
O        O      0.211366666667     0.458100000000     0.171500000000     0          
O        O      0.235633333333     0.430400000000     0.224850000000     0          
O        O      0.288666666667     0.069550000000     0.222800000000     0          
O        O      0.211400000000     0.041500000000     0.221800000000     0          
O        O      0.211366666667     0.097050000000     0.221500000000     0          
T        Si     0.236700000000     0.430300000000     0.185150000000     0          
T        Si     0.236733333333     0.069350000000     0.235400000000     0          
O        O      0.044733333333     0.069650000000     0.422500000000     0          
O        O      0.121966666667     0.097550000000     0.421500000000     0          
O        O      0.121966666667     0.041900000000     0.421500000000     0          
O        O      0.097700000000     0.069600000000     0.474850000000     0          
O        O      0.044666666667     0.430450000000     0.472800000000     0          
O        O      0.121933333333     0.458500000000     0.471800000000     0          
O        O      0.121966666667     0.402950000000     0.471500000000     0          
T        Si     0.096633333333     0.069700000000     0.435150000000     0          
T        Si     0.096600000000     0.430650000000     0.485400000000     0          
O        O      0.211400000000     0.180350000000     0.672500000000     0          
O        O      0.288633333333     0.152450000000     0.671500000000     0          
O        O      0.288633333333     0.208100000000     0.671500000000     0          
O        O      0.264366666667     0.180400000000     0.724850000000     0          
O        O      0.211333333333     0.319550000000     0.722800000000     0          
O        O      0.288600000000     0.291500000000     0.721800000000     0          
O        O      0.288633333333     0.347050000000     0.721500000000     0          
O        O      0.000000000000     0.235100000000     0.625000000000     0          
O        O      0.000000000000     0.254850000000     0.685400000000     0          
O        O      0.000000000000     0.250000000000     0.750000000000     0          
O        O      0.000000000000     0.383500000000     0.685000000000     0          
O        O      0.000000000000     0.388550000000     0.749750000000     0          
O        O      0.000000000000     0.125400000000     0.625000000000     0          
O        O      0.000000000000     0.105800000000     0.685600000000     0          
O        O      0.000000000000     0.404300000000     0.625000000000     0          
T        Si     0.263300000000     0.180300000000     0.685150000000     0          
T        Si     0.263266666667     0.319350000000     0.735400000000     0          
T        Si     0.000000000000     0.226450000000     0.663450000000     0          
T        Si     0.000000000000     0.272000000000     0.719750000000     0          
T        Si     0.000000000000     0.366600000000     0.719500000000     0          
T        Si     0.000000000000     0.134100000000     0.663450000000     0          
T        Si     0.000000000000     0.089150000000     0.720250000000     0          
T        Si     0.000000000000     0.412250000000     0.663650000000     0          
O        O      0.121933333333     0.319650000000     0.922500000000     0          
O        O      0.044700000000     0.347550000000     0.921500000000     0          
O        O      0.044700000000     0.291900000000     0.921500000000     0          
O        O      0.068966666667     0.319600000000     0.974850000000     0          
O        O      0.122000000000     0.180450000000     0.972800000000     0          
O        O      0.044733333333     0.208500000000     0.971800000000     0          
O        O      0.044700000000     0.152950000000     0.971500000000     0          
O        O      0.000000000000     0.264900000000     0.875000000000     0          
O        O      0.000000000000     0.245150000000     0.935400000000     0          
O        O      0.000000000000     0.250000000000     0.500000000000     0          
O        O      0.000000000000     0.116500000000     0.935000000000     0          
O        O      0.000000000000     0.111450000000     0.999750000000     0          
O        O      0.000000000000     0.374600000000     0.875000000000     0          
O        O      0.000000000000     0.394200000000     0.935600000000     0          
O        O      0.000000000000     0.095700000000     0.875000000000     0          
T        Si     0.070033333333     0.319700000000     0.935150000000     0          
T        Si     0.070066666667     0.180650000000     0.985400000000     0          
T        Si     0.000000000000     0.273550000000     0.913450000000     0          
T        Si     0.000000000000     0.228000000000     0.969750000000     0          
T        Si     0.000000000000     0.133400000000     0.969500000000     0          
T        Si     0.000000000000     0.365900000000     0.913450000000     0          
T        Si     0.000000000000     0.410850000000     0.970250000000     0          
T        Si     0.000000000000     0.087750000000     0.913650000000     0          
O        O      0.211400000000     0.319650000000     0.827500000000     0          
O        O      0.288633333333     0.347550000000     0.828500000000     0          
O        O      0.288633333333     0.291900000000     0.828500000000     0          
O        O      0.264366666667     0.319600000000     0.775150000000     0          
O        O      0.211333333333     0.180450000000     0.777200000000     0          
O        O      0.288600000000     0.208500000000     0.778200000000     0          
O        O      0.288633333333     0.152950000000     0.778500000000     0          
O        O      0.000000000000     0.245150000000     0.814600000000     0          
O        O      0.000000000000     0.116500000000     0.815000000000     0          
O        O      0.000000000000     0.111450000000     0.750250000000     0          
O        O      0.000000000000     0.394200000000     0.814400000000     0          
T        Si     0.263300000000     0.319700000000     0.814850000000     0          
T        Si     0.263266666667     0.180650000000     0.764600000000     0          
T        Si     0.000000000000     0.273550000000     0.836550000000     0          
T        Si     0.000000000000     0.228000000000     0.780250000000     0          
T        Si     0.000000000000     0.133400000000     0.780500000000     0          
T        Si     0.000000000000     0.365900000000     0.836550000000     0          
T        Si     0.000000000000     0.410850000000     0.779750000000     0          
T        Si     0.000000000000     0.087750000000     0.836350000000     0          
O        O      0.121933333333     0.180350000000     0.577500000000     0          
O        O      0.044700000000     0.152450000000     0.578500000000     0          
O        O      0.044700000000     0.208100000000     0.578500000000     0          
O        O      0.068966666667     0.180400000000     0.525150000000     0          
O        O      0.122000000000     0.319550000000     0.527200000000     0          
O        O      0.044733333333     0.291500000000     0.528200000000     0          
O        O      0.044700000000     0.347050000000     0.528500000000     0          
O        O      0.000000000000     0.254850000000     0.564600000000     0          
O        O      0.000000000000     0.383500000000     0.565000000000     0          
O        O      0.000000000000     0.388550000000     0.500250000000     0          
O        O      0.000000000000     0.105800000000     0.564400000000     0          
T        Si     0.070033333333     0.180300000000     0.564850000000     0          
T        Si     0.070066666667     0.319350000000     0.514600000000     0          
T        Si     0.000000000000     0.226450000000     0.586550000000     0          
T        Si     0.000000000000     0.272000000000     0.530250000000     0          
T        Si     0.000000000000     0.366600000000     0.530500000000     0          
T        Si     0.000000000000     0.134100000000     0.586550000000     0          
T        Si     0.000000000000     0.089150000000     0.529750000000     0          
T        Si     0.000000000000     0.412250000000     0.586350000000     0          
O        O      0.121933333333     0.319650000000     0.827500000000     0          
O        O      0.044700000000     0.347550000000     0.828500000000     0          
O        O      0.044700000000     0.291900000000     0.828500000000     0          
O        O      0.068966666667     0.319600000000     0.775150000000     0          
O        O      0.122000000000     0.180450000000     0.777200000000     0          
O        O      0.044733333333     0.208500000000     0.778200000000     0          
O        O      0.044700000000     0.152950000000     0.778500000000     0          
T        Si     0.070033333333     0.319700000000     0.814850000000     0          
T        Si     0.070066666667     0.180650000000     0.764600000000     0          
O        O      0.211400000000     0.180350000000     0.577500000000     0          
O        O      0.288633333333     0.152450000000     0.578500000000     0          
O        O      0.288633333333     0.208100000000     0.578500000000     0          
O        O      0.264366666667     0.180400000000     0.525150000000     0          
O        O      0.211333333333     0.319550000000     0.527200000000     0          
O        O      0.288600000000     0.291500000000     0.528200000000     0          
O        O      0.288633333333     0.347050000000     0.528500000000     0          
T        Si     0.263300000000     0.180300000000     0.564850000000     0          
T        Si     0.263266666667     0.319350000000     0.514600000000     0          
O        O      0.121933333333     0.180350000000     0.672500000000     0          
O        O      0.044700000000     0.152450000000     0.671500000000     0          
O        O      0.044700000000     0.208100000000     0.671500000000     0          
O        O      0.068966666667     0.180400000000     0.724850000000     0          
O        O      0.122000000000     0.319550000000     0.722800000000     0          
O        O      0.044733333333     0.291500000000     0.721800000000     0          
O        O      0.044700000000     0.347050000000     0.721500000000     0          
T        Si     0.070033333333     0.180300000000     0.685150000000     0          
T        Si     0.070066666667     0.319350000000     0.735400000000     0          
O        O      0.211400000000     0.319650000000     0.922500000000     0          
O        O      0.288633333333     0.347550000000     0.921500000000     0          
O        O      0.288633333333     0.291900000000     0.921500000000     0          
O        O      0.264366666667     0.319600000000     0.974850000000     0          
O        O      0.211333333333     0.180450000000     0.972800000000     0          
O        O      0.288600000000     0.208500000000     0.971800000000     0          
O        O      0.288633333333     0.152950000000     0.971500000000     0          
T        Si     0.263300000000     0.319700000000     0.935150000000     0          
T        Si     0.263266666667     0.180650000000     0.985400000000     0          
O        O      0.044733333333     0.430350000000     0.672500000000     0          
O        O      0.121966666667     0.402450000000     0.671500000000     0          
O        O      0.121966666667     0.458100000000     0.671500000000     0          
O        O      0.097700000000     0.430400000000     0.724850000000     0          
O        O      0.044666666667     0.069550000000     0.722800000000     0          
O        O      0.121933333333     0.041500000000     0.721800000000     0          
O        O      0.121966666667     0.097050000000     0.721500000000     0          
O        O      0.166666666667     0.485100000000     0.625000000000     0          
O        O      0.166666666667     0.004850000000     0.685400000000     0          
O        O      0.166666666667     0.000000000000     0.750000000000     0          
O        O      0.166666666667     0.133500000000     0.685000000000     0          
O        O      0.166666666667     0.138550000000     0.749750000000     0          
O        O      0.166666666667     0.375400000000     0.625000000000     0          
O        O      0.166666666667     0.355800000000     0.685600000000     0          
O        O      0.166666666667     0.154300000000     0.625000000000     0          
T        Si     0.096633333333     0.430300000000     0.685150000000     0          
T        Si     0.096600000000     0.069350000000     0.735400000000     0          
T        Si     0.166666666667     0.476450000000     0.663450000000     0          
T        Si     0.166666666667     0.022000000000     0.719750000000     0          
T        Si     0.166666666667     0.116600000000     0.719500000000     0          
T        Si     0.166666666667     0.384100000000     0.663450000000     0          
T        Si     0.166666666667     0.339150000000     0.720250000000     0          
T        Si     0.166666666667     0.162250000000     0.663650000000     0          
O        O      0.288600000000     0.069650000000     0.922500000000     0          
O        O      0.211366666667     0.097550000000     0.921500000000     0          
O        O      0.211366666667     0.041900000000     0.921500000000     0          
O        O      0.235633333333     0.069600000000     0.974850000000     0          
O        O      0.288666666667     0.430450000000     0.972800000000     0          
O        O      0.211400000000     0.458500000000     0.971800000000     0          
O        O      0.211366666667     0.402950000000     0.971500000000     0          
O        O      0.166666666667     0.014900000000     0.875000000000     0          
O        O      0.166666666667     0.495150000000     0.935400000000     0          
O        O      0.166666666667     0.000000000000     0.500000000000     0          
O        O      0.166666666667     0.366500000000     0.935000000000     0          
O        O      0.166666666667     0.361450000000     0.999750000000     0          
O        O      0.166666666667     0.124600000000     0.875000000000     0          
O        O      0.166666666667     0.144200000000     0.935600000000     0          
O        O      0.166666666667     0.345700000000     0.875000000000     0          
T        Si     0.236700000000     0.069700000000     0.935150000000     0          
T        Si     0.236733333333     0.430650000000     0.985400000000     0          
T        Si     0.166666666667     0.023550000000     0.913450000000     0          
T        Si     0.166666666667     0.478000000000     0.969750000000     0          
T        Si     0.166666666667     0.383400000000     0.969500000000     0          
T        Si     0.166666666667     0.115900000000     0.913450000000     0          
T        Si     0.166666666667     0.160850000000     0.970250000000     0          
T        Si     0.166666666667     0.337750000000     0.913650000000     0          
O        O      0.044733333333     0.069650000000     0.827500000000     0          
O        O      0.121966666667     0.097550000000     0.828500000000     0          
O        O      0.121966666667     0.041900000000     0.828500000000     0          
O        O      0.097700000000     0.069600000000     0.775150000000     0          
O        O      0.044666666667     0.430450000000     0.777200000000     0          
O        O      0.121933333333     0.458500000000     0.778200000000     0          
O        O      0.121966666667     0.402950000000     0.778500000000     0          
O        O      0.166666666667     0.495150000000     0.814600000000     0          
O        O      0.166666666667     0.366500000000     0.815000000000     0          
O        O      0.166666666667     0.361450000000     0.750250000000     0          
O        O      0.166666666667     0.144200000000     0.814400000000     0          
T        Si     0.096633333333     0.069700000000     0.814850000000     0          
T        Si     0.096600000000     0.430650000000     0.764600000000     0          
T        Si     0.166666666667     0.023550000000     0.836550000000     0          
T        Si     0.166666666667     0.478000000000     0.780250000000     0          
T        Si     0.166666666667     0.383400000000     0.780500000000     0          
T        Si     0.166666666667     0.115900000000     0.836550000000     0          
T        Si     0.166666666667     0.160850000000     0.779750000000     0          
T        Si     0.166666666667     0.337750000000     0.836350000000     0          
O        O      0.288600000000     0.430350000000     0.577500000000     0          
O        O      0.211366666667     0.402450000000     0.578500000000     0          
O        O      0.211366666667     0.458100000000     0.578500000000     0          
O        O      0.235633333333     0.430400000000     0.525150000000     0          
O        O      0.288666666667     0.069550000000     0.527200000000     0          
O        O      0.211400000000     0.041500000000     0.528200000000     0          
O        O      0.211366666667     0.097050000000     0.528500000000     0          
O        O      0.166666666667     0.004850000000     0.564600000000     0          
O        O      0.166666666667     0.133500000000     0.565000000000     0          
O        O      0.166666666667     0.138550000000     0.500250000000     0          
O        O      0.166666666667     0.355800000000     0.564400000000     0          
T        Si     0.236700000000     0.430300000000     0.564850000000     0          
T        Si     0.236733333333     0.069350000000     0.514600000000     0          
T        Si     0.166666666667     0.476450000000     0.586550000000     0          
T        Si     0.166666666667     0.022000000000     0.530250000000     0          
T        Si     0.166666666667     0.116600000000     0.530500000000     0          
T        Si     0.166666666667     0.384100000000     0.586550000000     0          
T        Si     0.166666666667     0.339150000000     0.529750000000     0          
T        Si     0.166666666667     0.162250000000     0.586350000000     0          
O        O      0.288600000000     0.069650000000     0.827500000000     0          
O        O      0.211366666667     0.097550000000     0.828500000000     0          
O        O      0.211366666667     0.041900000000     0.828500000000     0          
O        O      0.235633333333     0.069600000000     0.775150000000     0          
O        O      0.288666666667     0.430450000000     0.777200000000     0          
O        O      0.211400000000     0.458500000000     0.778200000000     0          
O        O      0.211366666667     0.402950000000     0.778500000000     0          
T        Si     0.236700000000     0.069700000000     0.814850000000     0          
T        Si     0.236733333333     0.430650000000     0.764600000000     0          
O        O      0.044733333333     0.430350000000     0.577500000000     0          
O        O      0.121966666667     0.402450000000     0.578500000000     0          
O        O      0.121966666667     0.458100000000     0.578500000000     0          
O        O      0.097700000000     0.430400000000     0.525150000000     0          
O        O      0.044666666667     0.069550000000     0.527200000000     0          
O        O      0.121933333333     0.041500000000     0.528200000000     0          
O        O      0.121966666667     0.097050000000     0.528500000000     0          
T        Si     0.096633333333     0.430300000000     0.564850000000     0          
T        Si     0.096600000000     0.069350000000     0.514600000000     0          
O        O      0.288600000000     0.430350000000     0.672500000000     0          
O        O      0.211366666667     0.402450000000     0.671500000000     0          
O        O      0.211366666667     0.458100000000     0.671500000000     0          
O        O      0.235633333333     0.430400000000     0.724850000000     0          
O        O      0.288666666667     0.069550000000     0.722800000000     0          
O        O      0.211400000000     0.041500000000     0.721800000000     0          
O        O      0.211366666667     0.097050000000     0.721500000000     0          
T        Si     0.236700000000     0.430300000000     0.685150000000     0          
T        Si     0.236733333333     0.069350000000     0.735400000000     0          
O        O      0.044733333333     0.069650000000     0.922500000000     0          
O        O      0.121966666667     0.097550000000     0.921500000000     0          
O        O      0.121966666667     0.041900000000     0.921500000000     0          
O        O      0.097700000000     0.069600000000     0.974850000000     0          
O        O      0.044666666667     0.430450000000     0.972800000000     0          
O        O      0.121933333333     0.458500000000     0.971800000000     0          
O        O      0.121966666667     0.402950000000     0.971500000000     0          
T        Si     0.096633333333     0.069700000000     0.935150000000     0          
T        Si     0.096600000000     0.430650000000     0.985400000000     0          
O        O      0.211400000000     0.680350000000     0.172500000000     0          
O        O      0.288633333333     0.652450000000     0.171500000000     0          
O        O      0.288633333333     0.708100000000     0.171500000000     0          
O        O      0.264366666667     0.680400000000     0.224850000000     0          
O        O      0.211333333333     0.819550000000     0.222800000000     0          
O        O      0.288600000000     0.791500000000     0.221800000000     0          
O        O      0.288633333333     0.847050000000     0.221500000000     0          
O        O      0.000000000000     0.735100000000     0.125000000000     0          
O        O      0.000000000000     0.754850000000     0.185400000000     0          
O        O      0.000000000000     0.750000000000     0.250000000000     0          
O        O      0.000000000000     0.883500000000     0.185000000000     0          
O        O      0.000000000000     0.888550000000     0.249750000000     0          
O        O      0.000000000000     0.625400000000     0.125000000000     0          
O        O      0.000000000000     0.605800000000     0.185600000000     0          
O        O      0.000000000000     0.904300000000     0.125000000000     0          
T        Si     0.263300000000     0.680300000000     0.185150000000     0          
T        Si     0.263266666667     0.819350000000     0.235400000000     0          
T        Si     0.000000000000     0.726450000000     0.163450000000     0          
T        Si     0.000000000000     0.772000000000     0.219750000000     0          
T        Si     0.000000000000     0.866600000000     0.219500000000     0          
T        Si     0.000000000000     0.634100000000     0.163450000000     0          
T        Si     0.000000000000     0.589150000000     0.220250000000     0          
T        Si     0.000000000000     0.912250000000     0.163650000000     0          
O        O      0.121933333333     0.819650000000     0.422500000000     0          
O        O      0.044700000000     0.847550000000     0.421500000000     0          
O        O      0.044700000000     0.791900000000     0.421500000000     0          
O        O      0.068966666667     0.819600000000     0.474850000000     0          
O        O      0.122000000000     0.680450000000     0.472800000000     0          
O        O      0.044733333333     0.708500000000     0.471800000000     0          
O        O      0.044700000000     0.652950000000     0.471500000000     0          
O        O      0.000000000000     0.764900000000     0.375000000000     0          
O        O      0.000000000000     0.745150000000     0.435400000000     0          
O        O      0.000000000000     0.750000000000     0.000000000000     0          
O        O      0.000000000000     0.616500000000     0.435000000000     0          
O        O      0.000000000000     0.611450000000     0.499750000000     0          
O        O      0.000000000000     0.874600000000     0.375000000000     0          
O        O      0.000000000000     0.894200000000     0.435600000000     0          
O        O      0.000000000000     0.595700000000     0.375000000000     0          
T        Si     0.070033333333     0.819700000000     0.435150000000     0          
T        Si     0.070066666667     0.680650000000     0.485400000000     0          
T        Si     0.000000000000     0.773550000000     0.413450000000     0          
T        Si     0.000000000000     0.728000000000     0.469750000000     0          
T        Si     0.000000000000     0.633400000000     0.469500000000     0          
T        Si     0.000000000000     0.865900000000     0.413450000000     0          
T        Si     0.000000000000     0.910850000000     0.470250000000     0          
T        Si     0.000000000000     0.587750000000     0.413650000000     0          
O        O      0.211400000000     0.819650000000     0.327500000000     0          
O        O      0.288633333333     0.847550000000     0.328500000000     0          
O        O      0.288633333333     0.791900000000     0.328500000000     0          
O        O      0.264366666667     0.819600000000     0.275150000000     0          
O        O      0.211333333333     0.680450000000     0.277200000000     0          
O        O      0.288600000000     0.708500000000     0.278200000000     0          
O        O      0.288633333333     0.652950000000     0.278500000000     0          
O        O      0.000000000000     0.745150000000     0.314600000000     0          
O        O      0.000000000000     0.616500000000     0.315000000000     0          
O        O      0.000000000000     0.611450000000     0.250250000000     0          
O        O      0.000000000000     0.894200000000     0.314400000000     0          
T        Si     0.263300000000     0.819700000000     0.314850000000     0          
T        Si     0.263266666667     0.680650000000     0.264600000000     0          
T        Si     0.000000000000     0.773550000000     0.336550000000     0          
T        Si     0.000000000000     0.728000000000     0.280250000000     0          
T        Si     0.000000000000     0.633400000000     0.280500000000     0          
T        Si     0.000000000000     0.865900000000     0.336550000000     0          
T        Si     0.000000000000     0.910850000000     0.279750000000     0          
T        Si     0.000000000000     0.587750000000     0.336350000000     0          
O        O      0.121933333333     0.680350000000     0.077500000000     0          
O        O      0.044700000000     0.652450000000     0.078500000000     0          
O        O      0.044700000000     0.708100000000     0.078500000000     0          
O        O      0.068966666667     0.680400000000     0.025150000000     0          
O        O      0.122000000000     0.819550000000     0.027200000000     0          
O        O      0.044733333333     0.791500000000     0.028200000000     0          
O        O      0.044700000000     0.847050000000     0.028500000000     0          
O        O      0.000000000000     0.754850000000     0.064600000000     0          
O        O      0.000000000000     0.883500000000     0.065000000000     0          
O        O      0.000000000000     0.888550000000     0.000250000000     0          
O        O      0.000000000000     0.605800000000     0.064400000000     0          
T        Si     0.070033333333     0.680300000000     0.064850000000     0          
T        Si     0.070066666667     0.819350000000     0.014600000000     0          
T        Si     0.000000000000     0.726450000000     0.086550000000     0          
T        Si     0.000000000000     0.772000000000     0.030250000000     0          
T        Si     0.000000000000     0.866600000000     0.030500000000     0          
T        Si     0.000000000000     0.634100000000     0.086550000000     0          
T        Si     0.000000000000     0.589150000000     0.029750000000     0          
T        Si     0.000000000000     0.912250000000     0.086350000000     0          
O        O      0.121933333333     0.819650000000     0.327500000000     0          
O        O      0.044700000000     0.847550000000     0.328500000000     0          
O        O      0.044700000000     0.791900000000     0.328500000000     0          
O        O      0.068966666667     0.819600000000     0.275150000000     0          
O        O      0.122000000000     0.680450000000     0.277200000000     0          
O        O      0.044733333333     0.708500000000     0.278200000000     0          
O        O      0.044700000000     0.652950000000     0.278500000000     0          
T        Si     0.070033333333     0.819700000000     0.314850000000     0          
T        Si     0.070066666667     0.680650000000     0.264600000000     0          
O        O      0.211400000000     0.680350000000     0.077500000000     0          
O        O      0.288633333333     0.652450000000     0.078500000000     0          
O        O      0.288633333333     0.708100000000     0.078500000000     0          
O        O      0.264366666667     0.680400000000     0.025150000000     0          
O        O      0.211333333333     0.819550000000     0.027200000000     0          
O        O      0.288600000000     0.791500000000     0.028200000000     0          
O        O      0.288633333333     0.847050000000     0.028500000000     0          
T        Si     0.263300000000     0.680300000000     0.064850000000     0          
T        Si     0.263266666667     0.819350000000     0.014600000000     0          
O        O      0.121933333333     0.680350000000     0.172500000000     0          
O        O      0.044700000000     0.652450000000     0.171500000000     0          
O        O      0.044700000000     0.708100000000     0.171500000000     0          
O        O      0.068966666667     0.680400000000     0.224850000000     0          
O        O      0.122000000000     0.819550000000     0.222800000000     0          
O        O      0.044733333333     0.791500000000     0.221800000000     0          
O        O      0.044700000000     0.847050000000     0.221500000000     0          
T        Si     0.070033333333     0.680300000000     0.185150000000     0          
T        Si     0.070066666667     0.819350000000     0.235400000000     0          
O        O      0.211400000000     0.819650000000     0.422500000000     0          
O        O      0.288633333333     0.847550000000     0.421500000000     0          
O        O      0.288633333333     0.791900000000     0.421500000000     0          
O        O      0.264366666667     0.819600000000     0.474850000000     0          
O        O      0.211333333333     0.680450000000     0.472800000000     0          
O        O      0.288600000000     0.708500000000     0.471800000000     0          
O        O      0.288633333333     0.652950000000     0.471500000000     0          
T        Si     0.263300000000     0.819700000000     0.435150000000     0          
T        Si     0.263266666667     0.680650000000     0.485400000000     0          
O        O      0.044733333333     0.930350000000     0.172500000000     0          
O        O      0.121966666667     0.902450000000     0.171500000000     0          
O        O      0.121966666667     0.958100000000     0.171500000000     0          
O        O      0.097700000000     0.930400000000     0.224850000000     0          
O        O      0.044666666667     0.569550000000     0.222800000000     0          
O        O      0.121933333333     0.541500000000     0.221800000000     0          
O        O      0.121966666667     0.597050000000     0.221500000000     0          
O        O      0.166666666667     0.985100000000     0.125000000000     0          
O        O      0.166666666667     0.504850000000     0.185400000000     0          
O        O      0.166666666667     0.500000000000     0.250000000000     0          
O        O      0.166666666667     0.633500000000     0.185000000000     0          
O        O      0.166666666667     0.638550000000     0.249750000000     0          
O        O      0.166666666667     0.875400000000     0.125000000000     0          
O        O      0.166666666667     0.855800000000     0.185600000000     0          
O        O      0.166666666667     0.654300000000     0.125000000000     0          
T        Si     0.096633333333     0.930300000000     0.185150000000     0          
T        Si     0.096600000000     0.569350000000     0.235400000000     0          
T        Si     0.166666666667     0.976450000000     0.163450000000     0          
T        Si     0.166666666667     0.522000000000     0.219750000000     0          
T        Si     0.166666666667     0.616600000000     0.219500000000     0          
T        Si     0.166666666667     0.884100000000     0.163450000000     0          
T        Si     0.166666666667     0.839150000000     0.220250000000     0          
T        Si     0.166666666667     0.662250000000     0.163650000000     0          
O        O      0.288600000000     0.569650000000     0.422500000000     0          
O        O      0.211366666667     0.597550000000     0.421500000000     0          
O        O      0.211366666667     0.541900000000     0.421500000000     0          
O        O      0.235633333333     0.569600000000     0.474850000000     0          
O        O      0.288666666667     0.930450000000     0.472800000000     0          
O        O      0.211400000000     0.958500000000     0.471800000000     0          
O        O      0.211366666667     0.902950000000     0.471500000000     0          
O        O      0.166666666667     0.514900000000     0.375000000000     0          
O        O      0.166666666667     0.995150000000     0.435400000000     0          
O        O      0.166666666667     0.500000000000     0.000000000000     0          
O        O      0.166666666667     0.866500000000     0.435000000000     0          
O        O      0.166666666667     0.861450000000     0.499750000000     0          
O        O      0.166666666667     0.624600000000     0.375000000000     0          
O        O      0.166666666667     0.644200000000     0.435600000000     0          
O        O      0.166666666667     0.845700000000     0.375000000000     0          
T        Si     0.236700000000     0.569700000000     0.435150000000     0          
T        Si     0.236733333333     0.930650000000     0.485400000000     0          
T        Si     0.166666666667     0.523550000000     0.413450000000     0          
T        Si     0.166666666667     0.978000000000     0.469750000000     0          
T        Si     0.166666666667     0.883400000000     0.469500000000     0          
T        Si     0.166666666667     0.615900000000     0.413450000000     0          
T        Si     0.166666666667     0.660850000000     0.470250000000     0          
T        Si     0.166666666667     0.837750000000     0.413650000000     0          
O        O      0.044733333333     0.569650000000     0.327500000000     0          
O        O      0.121966666667     0.597550000000     0.328500000000     0          
O        O      0.121966666667     0.541900000000     0.328500000000     0          
O        O      0.097700000000     0.569600000000     0.275150000000     0          
O        O      0.044666666667     0.930450000000     0.277200000000     0          
O        O      0.121933333333     0.958500000000     0.278200000000     0          
O        O      0.121966666667     0.902950000000     0.278500000000     0          
O        O      0.166666666667     0.995150000000     0.314600000000     0          
O        O      0.166666666667     0.866500000000     0.315000000000     0          
O        O      0.166666666667     0.861450000000     0.250250000000     0          
O        O      0.166666666667     0.644200000000     0.314400000000     0          
T        Si     0.096633333333     0.569700000000     0.314850000000     0          
T        Si     0.096600000000     0.930650000000     0.264600000000     0          
T        Si     0.166666666667     0.523550000000     0.336550000000     0          
T        Si     0.166666666667     0.978000000000     0.280250000000     0          
T        Si     0.166666666667     0.883400000000     0.280500000000     0          
T        Si     0.166666666667     0.615900000000     0.336550000000     0          
T        Si     0.166666666667     0.660850000000     0.279750000000     0          
T        Si     0.166666666667     0.837750000000     0.336350000000     0          
O        O      0.288600000000     0.930350000000     0.077500000000     0          
O        O      0.211366666667     0.902450000000     0.078500000000     0          
O        O      0.211366666667     0.958100000000     0.078500000000     0          
O        O      0.235633333333     0.930400000000     0.025150000000     0          
O        O      0.288666666667     0.569550000000     0.027200000000     0          
O        O      0.211400000000     0.541500000000     0.028200000000     0          
O        O      0.211366666667     0.597050000000     0.028500000000     0          
O        O      0.166666666667     0.504850000000     0.064600000000     0          
O        O      0.166666666667     0.633500000000     0.065000000000     0          
O        O      0.166666666667     0.638550000000     0.000250000000     0          
O        O      0.166666666667     0.855800000000     0.064400000000     0          
T        Si     0.236700000000     0.930300000000     0.064850000000     0          
T        Si     0.236733333333     0.569350000000     0.014600000000     0          
T        Si     0.166666666667     0.976450000000     0.086550000000     0          
T        Si     0.166666666667     0.522000000000     0.030250000000     0          
T        Si     0.166666666667     0.616600000000     0.030500000000     0          
T        Si     0.166666666667     0.884100000000     0.086550000000     0          
T        Si     0.166666666667     0.839150000000     0.029750000000     0          
T        Si     0.166666666667     0.662250000000     0.086350000000     0          
O        O      0.288600000000     0.569650000000     0.327500000000     0          
O        O      0.211366666667     0.597550000000     0.328500000000     0          
O        O      0.211366666667     0.541900000000     0.328500000000     0          
O        O      0.235633333333     0.569600000000     0.275150000000     0          
O        O      0.288666666667     0.930450000000     0.277200000000     0          
O        O      0.211400000000     0.958500000000     0.278200000000     0          
O        O      0.211366666667     0.902950000000     0.278500000000     0          
T        Si     0.236700000000     0.569700000000     0.314850000000     0          
T        Si     0.236733333333     0.930650000000     0.264600000000     0          
O        O      0.044733333333     0.930350000000     0.077500000000     0          
O        O      0.121966666667     0.902450000000     0.078500000000     0          
O        O      0.121966666667     0.958100000000     0.078500000000     0          
O        O      0.097700000000     0.930400000000     0.025150000000     0          
O        O      0.044666666667     0.569550000000     0.027200000000     0          
O        O      0.121933333333     0.541500000000     0.028200000000     0          
O        O      0.121966666667     0.597050000000     0.028500000000     0          
T        Si     0.096633333333     0.930300000000     0.064850000000     0          
T        Si     0.096600000000     0.569350000000     0.014600000000     0          
O        O      0.288600000000     0.930350000000     0.172500000000     0          
O        O      0.211366666667     0.902450000000     0.171500000000     0          
O        O      0.211366666667     0.958100000000     0.171500000000     0          
O        O      0.235633333333     0.930400000000     0.224850000000     0          
O        O      0.288666666667     0.569550000000     0.222800000000     0          
O        O      0.211400000000     0.541500000000     0.221800000000     0          
O        O      0.211366666667     0.597050000000     0.221500000000     0          
T        Si     0.236700000000     0.930300000000     0.185150000000     0          
T        Si     0.236733333333     0.569350000000     0.235400000000     0          
O        O      0.044733333333     0.569650000000     0.422500000000     0          
O        O      0.121966666667     0.597550000000     0.421500000000     0          
O        O      0.121966666667     0.541900000000     0.421500000000     0          
O        O      0.097700000000     0.569600000000     0.474850000000     0          
O        O      0.044666666667     0.930450000000     0.472800000000     0          
O        O      0.121933333333     0.958500000000     0.471800000000     0          
O        O      0.121966666667     0.902950000000     0.471500000000     0          
T        Si     0.096633333333     0.569700000000     0.435150000000     0          
T        Si     0.096600000000     0.930650000000     0.485400000000     0          
O        O      0.211400000000     0.680350000000     0.672500000000     0          
O        O      0.288633333333     0.652450000000     0.671500000000     0          
O        O      0.288633333333     0.708100000000     0.671500000000     0          
O        O      0.264366666667     0.680400000000     0.724850000000     0          
O        O      0.211333333333     0.819550000000     0.722800000000     0          
O        O      0.288600000000     0.791500000000     0.721800000000     0          
O        O      0.288633333333     0.847050000000     0.721500000000     0          
O        O      0.000000000000     0.735100000000     0.625000000000     0          
O        O      0.000000000000     0.754850000000     0.685400000000     0          
O        O      0.000000000000     0.750000000000     0.750000000000     0          
O        O      0.000000000000     0.883500000000     0.685000000000     0          
O        O      0.000000000000     0.888550000000     0.749750000000     0          
O        O      0.000000000000     0.625400000000     0.625000000000     0          
O        O      0.000000000000     0.605800000000     0.685600000000     0          
O        O      0.000000000000     0.904300000000     0.625000000000     0          
T        Si     0.263300000000     0.680300000000     0.685150000000     0          
T        Si     0.263266666667     0.819350000000     0.735400000000     0          
T        Si     0.000000000000     0.726450000000     0.663450000000     0          
T        Si     0.000000000000     0.772000000000     0.719750000000     0          
T        Si     0.000000000000     0.866600000000     0.719500000000     0          
T        Si     0.000000000000     0.634100000000     0.663450000000     0          
T        Si     0.000000000000     0.589150000000     0.720250000000     0          
T        Si     0.000000000000     0.912250000000     0.663650000000     0          
O        O      0.121933333333     0.819650000000     0.922500000000     0          
O        O      0.044700000000     0.847550000000     0.921500000000     0          
O        O      0.044700000000     0.791900000000     0.921500000000     0          
O        O      0.068966666667     0.819600000000     0.974850000000     0          
O        O      0.122000000000     0.680450000000     0.972800000000     0          
O        O      0.044733333333     0.708500000000     0.971800000000     0          
O        O      0.044700000000     0.652950000000     0.971500000000     0          
O        O      0.000000000000     0.764900000000     0.875000000000     0          
O        O      0.000000000000     0.745150000000     0.935400000000     0          
O        O      0.000000000000     0.750000000000     0.500000000000     0          
O        O      0.000000000000     0.616500000000     0.935000000000     0          
O        O      0.000000000000     0.611450000000     0.999750000000     0          
O        O      0.000000000000     0.874600000000     0.875000000000     0          
O        O      0.000000000000     0.894200000000     0.935600000000     0          
O        O      0.000000000000     0.595700000000     0.875000000000     0          
T        Si     0.070033333333     0.819700000000     0.935150000000     0          
T        Si     0.070066666667     0.680650000000     0.985400000000     0          
T        Si     0.000000000000     0.773550000000     0.913450000000     0          
T        Si     0.000000000000     0.728000000000     0.969750000000     0          
T        Si     0.000000000000     0.633400000000     0.969500000000     0          
T        Si     0.000000000000     0.865900000000     0.913450000000     0          
T        Si     0.000000000000     0.910850000000     0.970250000000     0          
T        Si     0.000000000000     0.587750000000     0.913650000000     0          
O        O      0.211400000000     0.819650000000     0.827500000000     0          
O        O      0.288633333333     0.847550000000     0.828500000000     0          
O        O      0.288633333333     0.791900000000     0.828500000000     0          
O        O      0.264366666667     0.819600000000     0.775150000000     0          
O        O      0.211333333333     0.680450000000     0.777200000000     0          
O        O      0.288600000000     0.708500000000     0.778200000000     0          
O        O      0.288633333333     0.652950000000     0.778500000000     0          
O        O      0.000000000000     0.745150000000     0.814600000000     0          
O        O      0.000000000000     0.616500000000     0.815000000000     0          
O        O      0.000000000000     0.611450000000     0.750250000000     0          
O        O      0.000000000000     0.894200000000     0.814400000000     0          
T        Si     0.263300000000     0.819700000000     0.814850000000     0          
T        Si     0.263266666667     0.680650000000     0.764600000000     0          
T        Si     0.000000000000     0.773550000000     0.836550000000     0          
T        Si     0.000000000000     0.728000000000     0.780250000000     0          
T        Si     0.000000000000     0.633400000000     0.780500000000     0          
T        Si     0.000000000000     0.865900000000     0.836550000000     0          
T        Si     0.000000000000     0.910850000000     0.779750000000     0          
T        Si     0.000000000000     0.587750000000     0.836350000000     0          
O        O      0.121933333333     0.680350000000     0.577500000000     0          
O        O      0.044700000000     0.652450000000     0.578500000000     0          
O        O      0.044700000000     0.708100000000     0.578500000000     0          
O        O      0.068966666667     0.680400000000     0.525150000000     0          
O        O      0.122000000000     0.819550000000     0.527200000000     0          
O        O      0.044733333333     0.791500000000     0.528200000000     0          
O        O      0.044700000000     0.847050000000     0.528500000000     0          
O        O      0.000000000000     0.754850000000     0.564600000000     0          
O        O      0.000000000000     0.883500000000     0.565000000000     0          
O        O      0.000000000000     0.888550000000     0.500250000000     0          
O        O      0.000000000000     0.605800000000     0.564400000000     0          
T        Si     0.070033333333     0.680300000000     0.564850000000     0          
T        Si     0.070066666667     0.819350000000     0.514600000000     0          
T        Si     0.000000000000     0.726450000000     0.586550000000     0          
T        Si     0.000000000000     0.772000000000     0.530250000000     0          
T        Si     0.000000000000     0.866600000000     0.530500000000     0          
T        Si     0.000000000000     0.634100000000     0.586550000000     0          
T        Si     0.000000000000     0.589150000000     0.529750000000     0          
T        Si     0.000000000000     0.912250000000     0.586350000000     0          
O        O      0.121933333333     0.819650000000     0.827500000000     0          
O        O      0.044700000000     0.847550000000     0.828500000000     0          
O        O      0.044700000000     0.791900000000     0.828500000000     0          
O        O      0.068966666667     0.819600000000     0.775150000000     0          
O        O      0.122000000000     0.680450000000     0.777200000000     0          
O        O      0.044733333333     0.708500000000     0.778200000000     0          
O        O      0.044700000000     0.652950000000     0.778500000000     0          
T        Si     0.070033333333     0.819700000000     0.814850000000     0          
T        Si     0.070066666667     0.680650000000     0.764600000000     0          
O        O      0.211400000000     0.680350000000     0.577500000000     0          
O        O      0.288633333333     0.652450000000     0.578500000000     0          
O        O      0.288633333333     0.708100000000     0.578500000000     0          
O        O      0.264366666667     0.680400000000     0.525150000000     0          
O        O      0.211333333333     0.819550000000     0.527200000000     0          
O        O      0.288600000000     0.791500000000     0.528200000000     0          
O        O      0.288633333333     0.847050000000     0.528500000000     0          
T        Si     0.263300000000     0.680300000000     0.564850000000     0          
T        Si     0.263266666667     0.819350000000     0.514600000000     0          
O        O      0.121933333333     0.680350000000     0.672500000000     0          
O        O      0.044700000000     0.652450000000     0.671500000000     0          
O        O      0.044700000000     0.708100000000     0.671500000000     0          
O        O      0.068966666667     0.680400000000     0.724850000000     0          
O        O      0.122000000000     0.819550000000     0.722800000000     0          
O        O      0.044733333333     0.791500000000     0.721800000000     0          
O        O      0.044700000000     0.847050000000     0.721500000000     0          
T        Si     0.070033333333     0.680300000000     0.685150000000     0          
T        Si     0.070066666667     0.819350000000     0.735400000000     0          
O        O      0.211400000000     0.819650000000     0.922500000000     0          
O        O      0.288633333333     0.847550000000     0.921500000000     0          
O        O      0.288633333333     0.791900000000     0.921500000000     0          
O        O      0.264366666667     0.819600000000     0.974850000000     0          
O        O      0.211333333333     0.680450000000     0.972800000000     0          
O        O      0.288600000000     0.708500000000     0.971800000000     0          
O        O      0.288633333333     0.652950000000     0.971500000000     0          
T        Si     0.263300000000     0.819700000000     0.935150000000     0          
T        Si     0.263266666667     0.680650000000     0.985400000000     0          
O        O      0.044733333333     0.930350000000     0.672500000000     0          
O        O      0.121966666667     0.902450000000     0.671500000000     0          
O        O      0.121966666667     0.958100000000     0.671500000000     0          
O        O      0.097700000000     0.930400000000     0.724850000000     0          
O        O      0.044666666667     0.569550000000     0.722800000000     0          
O        O      0.121933333333     0.541500000000     0.721800000000     0          
O        O      0.121966666667     0.597050000000     0.721500000000     0          
O        O      0.166666666667     0.985100000000     0.625000000000     0          
O        O      0.166666666667     0.504850000000     0.685400000000     0          
O        O      0.166666666667     0.500000000000     0.750000000000     0          
O        O      0.166666666667     0.633500000000     0.685000000000     0          
O        O      0.166666666667     0.638550000000     0.749750000000     0          
O        O      0.166666666667     0.875400000000     0.625000000000     0          
O        O      0.166666666667     0.855800000000     0.685600000000     0          
O        O      0.166666666667     0.654300000000     0.625000000000     0          
T        Si     0.096633333333     0.930300000000     0.685150000000     0          
T        Si     0.096600000000     0.569350000000     0.735400000000     0          
T        Si     0.166666666667     0.976450000000     0.663450000000     0          
T        Si     0.166666666667     0.522000000000     0.719750000000     0          
T        Si     0.166666666667     0.616600000000     0.719500000000     0          
T        Si     0.166666666667     0.884100000000     0.663450000000     0          
T        Si     0.166666666667     0.839150000000     0.720250000000     0          
T        Si     0.166666666667     0.662250000000     0.663650000000     0          
O        O      0.288600000000     0.569650000000     0.922500000000     0          
O        O      0.211366666667     0.597550000000     0.921500000000     0          
O        O      0.211366666667     0.541900000000     0.921500000000     0          
O        O      0.235633333333     0.569600000000     0.974850000000     0          
O        O      0.288666666667     0.930450000000     0.972800000000     0          
O        O      0.211400000000     0.958500000000     0.971800000000     0          
O        O      0.211366666667     0.902950000000     0.971500000000     0          
O        O      0.166666666667     0.514900000000     0.875000000000     0          
O        O      0.166666666667     0.995150000000     0.935400000000     0          
O        O      0.166666666667     0.500000000000     0.500000000000     0          
O        O      0.166666666667     0.866500000000     0.935000000000     0          
O        O      0.166666666667     0.861450000000     0.999750000000     0          
O        O      0.166666666667     0.624600000000     0.875000000000     0          
O        O      0.166666666667     0.644200000000     0.935600000000     0          
O        O      0.166666666667     0.845700000000     0.875000000000     0          
T        Si     0.236700000000     0.569700000000     0.935150000000     0          
T        Si     0.236733333333     0.930650000000     0.985400000000     0          
T        Si     0.166666666667     0.523550000000     0.913450000000     0          
T        Si     0.166666666667     0.978000000000     0.969750000000     0          
T        Si     0.166666666667     0.883400000000     0.969500000000     0          
T        Si     0.166666666667     0.615900000000     0.913450000000     0          
T        Si     0.166666666667     0.660850000000     0.970250000000     0          
T        Si     0.166666666667     0.837750000000     0.913650000000     0          
O        O      0.044733333333     0.569650000000     0.827500000000     0          
O        O      0.121966666667     0.597550000000     0.828500000000     0          
O        O      0.121966666667     0.541900000000     0.828500000000     0          
O        O      0.097700000000     0.569600000000     0.775150000000     0          
O        O      0.044666666667     0.930450000000     0.777200000000     0          
O        O      0.121933333333     0.958500000000     0.778200000000     0          
O        O      0.121966666667     0.902950000000     0.778500000000     0          
O        O      0.166666666667     0.995150000000     0.814600000000     0          
O        O      0.166666666667     0.866500000000     0.815000000000     0          
O        O      0.166666666667     0.861450000000     0.750250000000     0          
O        O      0.166666666667     0.644200000000     0.814400000000     0          
T        Si     0.096633333333     0.569700000000     0.814850000000     0          
T        Si     0.096600000000     0.930650000000     0.764600000000     0          
T        Si     0.166666666667     0.523550000000     0.836550000000     0          
T        Si     0.166666666667     0.978000000000     0.780250000000     0          
T        Si     0.166666666667     0.883400000000     0.780500000000     0          
T        Si     0.166666666667     0.615900000000     0.836550000000     0          
T        Si     0.166666666667     0.660850000000     0.779750000000     0          
T        Si     0.166666666667     0.837750000000     0.836350000000     0          
O        O      0.288600000000     0.930350000000     0.577500000000     0          
O        O      0.211366666667     0.902450000000     0.578500000000     0          
O        O      0.211366666667     0.958100000000     0.578500000000     0          
O        O      0.235633333333     0.930400000000     0.525150000000     0          
O        O      0.288666666667     0.569550000000     0.527200000000     0          
O        O      0.211400000000     0.541500000000     0.528200000000     0          
O        O      0.211366666667     0.597050000000     0.528500000000     0          
O        O      0.166666666667     0.504850000000     0.564600000000     0          
O        O      0.166666666667     0.633500000000     0.565000000000     0          
O        O      0.166666666667     0.638550000000     0.500250000000     0          
O        O      0.166666666667     0.855800000000     0.564400000000     0          
T        Si     0.236700000000     0.930300000000     0.564850000000     0          
T        Si     0.236733333333     0.569350000000     0.514600000000     0          
T        Si     0.166666666667     0.976450000000     0.586550000000     0          
T        Si     0.166666666667     0.522000000000     0.530250000000     0          
T        Si     0.166666666667     0.616600000000     0.530500000000     0          
T        Si     0.166666666667     0.884100000000     0.586550000000     0          
T        Si     0.166666666667     0.839150000000     0.529750000000     0          
T        Si     0.166666666667     0.662250000000     0.586350000000     0          
O        O      0.288600000000     0.569650000000     0.827500000000     0          
O        O      0.211366666667     0.597550000000     0.828500000000     0          
O        O      0.211366666667     0.541900000000     0.828500000000     0          
O        O      0.235633333333     0.569600000000     0.775150000000     0          
O        O      0.288666666667     0.930450000000     0.777200000000     0          
O        O      0.211400000000     0.958500000000     0.778200000000     0          
O        O      0.211366666667     0.902950000000     0.778500000000     0          
T        Si     0.236700000000     0.569700000000     0.814850000000     0          
T        Si     0.236733333333     0.930650000000     0.764600000000     0          
O        O      0.044733333333     0.930350000000     0.577500000000     0          
O        O      0.121966666667     0.902450000000     0.578500000000     0          
O        O      0.121966666667     0.958100000000     0.578500000000     0          
O        O      0.097700000000     0.930400000000     0.525150000000     0          
O        O      0.044666666667     0.569550000000     0.527200000000     0          
O        O      0.121933333333     0.541500000000     0.528200000000     0          
O        O      0.121966666667     0.597050000000     0.528500000000     0          
T        Si     0.096633333333     0.930300000000     0.564850000000     0          
T        Si     0.096600000000     0.569350000000     0.514600000000     0          
O        O      0.288600000000     0.930350000000     0.672500000000     0          
O        O      0.211366666667     0.902450000000     0.671500000000     0          
O        O      0.211366666667     0.958100000000     0.671500000000     0          
O        O      0.235633333333     0.930400000000     0.724850000000     0          
O        O      0.288666666667     0.569550000000     0.722800000000     0          
O        O      0.211400000000     0.541500000000     0.721800000000     0          
O        O      0.211366666667     0.597050000000     0.721500000000     0          
T        Si     0.236700000000     0.930300000000     0.685150000000     0          
T        Si     0.236733333333     0.569350000000     0.735400000000     0          
O        O      0.044733333333     0.569650000000     0.922500000000     0          
O        O      0.121966666667     0.597550000000     0.921500000000     0          
O        O      0.121966666667     0.541900000000     0.921500000000     0          
O        O      0.097700000000     0.569600000000     0.974850000000     0          
O        O      0.044666666667     0.930450000000     0.972800000000     0          
O        O      0.121933333333     0.958500000000     0.971800000000     0          
O        O      0.121966666667     0.902950000000     0.971500000000     0          
T        Si     0.096633333333     0.569700000000     0.935150000000     0          
T        Si     0.096600000000     0.930650000000     0.985400000000     0          
O        O      0.544733333333     0.180350000000     0.172500000000     0          
O        O      0.621966666667     0.152450000000     0.171500000000     0          
O        O      0.621966666667     0.208100000000     0.171500000000     0          
O        O      0.597700000000     0.180400000000     0.224850000000     0          
O        O      0.544666666667     0.319550000000     0.222800000000     0          
O        O      0.621933333333     0.291500000000     0.221800000000     0          
O        O      0.621966666667     0.347050000000     0.221500000000     0          
O        O      0.333333333333     0.235100000000     0.125000000000     0          
O        O      0.333333333333     0.254850000000     0.185400000000     0          
O        O      0.333333333333     0.250000000000     0.250000000000     0          
O        O      0.333333333333     0.383500000000     0.185000000000     0          
O        O      0.333333333333     0.388550000000     0.249750000000     0          
O        O      0.333333333333     0.125400000000     0.125000000000     0          
O        O      0.333333333333     0.105800000000     0.185600000000     0          
O        O      0.333333333333     0.404300000000     0.125000000000     0          
T        Si     0.596633333333     0.180300000000     0.185150000000     0          
T        Si     0.596600000000     0.319350000000     0.235400000000     0          
T        Si     0.333333333333     0.226450000000     0.163450000000     0          
T        Si     0.333333333333     0.272000000000     0.219750000000     0          
T        Si     0.333333333333     0.366600000000     0.219500000000     0          
T        Si     0.333333333333     0.134100000000     0.163450000000     0          
T        Si     0.333333333333     0.089150000000     0.220250000000     0          
T        Si     0.333333333333     0.412250000000     0.163650000000     0          
O        O      0.455266666667     0.319650000000     0.422500000000     0          
O        O      0.378033333333     0.347550000000     0.421500000000     0          
O        O      0.378033333333     0.291900000000     0.421500000000     0          
O        O      0.402300000000     0.319600000000     0.474850000000     0          
O        O      0.455333333333     0.180450000000     0.472800000000     0          
O        O      0.378066666667     0.208500000000     0.471800000000     0          
O        O      0.378033333333     0.152950000000     0.471500000000     0          
O        O      0.333333333333     0.264900000000     0.375000000000     0          
O        O      0.333333333333     0.245150000000     0.435400000000     0          
O        O      0.333333333333     0.250000000000     0.000000000000     0          
O        O      0.333333333333     0.116500000000     0.435000000000     0          
O        O      0.333333333333     0.111450000000     0.499750000000     0          
O        O      0.333333333333     0.374600000000     0.375000000000     0          
O        O      0.333333333333     0.394200000000     0.435600000000     0          
O        O      0.333333333333     0.095700000000     0.375000000000     0          
T        Si     0.403366666667     0.319700000000     0.435150000000     0          
T        Si     0.403400000000     0.180650000000     0.485400000000     0          
T        Si     0.333333333333     0.273550000000     0.413450000000     0          
T        Si     0.333333333333     0.228000000000     0.469750000000     0          
T        Si     0.333333333333     0.133400000000     0.469500000000     0          
T        Si     0.333333333333     0.365900000000     0.413450000000     0          
T        Si     0.333333333333     0.410850000000     0.470250000000     0          
T        Si     0.333333333333     0.087750000000     0.413650000000     0          
O        O      0.544733333333     0.319650000000     0.327500000000     0          
O        O      0.621966666667     0.347550000000     0.328500000000     0          
O        O      0.621966666667     0.291900000000     0.328500000000     0          
O        O      0.597700000000     0.319600000000     0.275150000000     0          
O        O      0.544666666667     0.180450000000     0.277200000000     0          
O        O      0.621933333333     0.208500000000     0.278200000000     0          
O        O      0.621966666667     0.152950000000     0.278500000000     0          
O        O      0.333333333333     0.245150000000     0.314600000000     0          
O        O      0.333333333333     0.116500000000     0.315000000000     0          
O        O      0.333333333333     0.111450000000     0.250250000000     0          
O        O      0.333333333333     0.394200000000     0.314400000000     0          
T        Si     0.596633333333     0.319700000000     0.314850000000     0          
T        Si     0.596600000000     0.180650000000     0.264600000000     0          
T        Si     0.333333333333     0.273550000000     0.336550000000     0          
T        Si     0.333333333333     0.228000000000     0.280250000000     0          
T        Si     0.333333333333     0.133400000000     0.280500000000     0          
T        Si     0.333333333333     0.365900000000     0.336550000000     0          
T        Si     0.333333333333     0.410850000000     0.279750000000     0          
T        Si     0.333333333333     0.087750000000     0.336350000000     0          
O        O      0.455266666667     0.180350000000     0.077500000000     0          
O        O      0.378033333333     0.152450000000     0.078500000000     0          
O        O      0.378033333333     0.208100000000     0.078500000000     0          
O        O      0.402300000000     0.180400000000     0.025150000000     0          
O        O      0.455333333333     0.319550000000     0.027200000000     0          
O        O      0.378066666667     0.291500000000     0.028200000000     0          
O        O      0.378033333333     0.347050000000     0.028500000000     0          
O        O      0.333333333333     0.254850000000     0.064600000000     0          
O        O      0.333333333333     0.383500000000     0.065000000000     0          
O        O      0.333333333333     0.388550000000     0.000250000000     0          
O        O      0.333333333333     0.105800000000     0.064400000000     0          
T        Si     0.403366666667     0.180300000000     0.064850000000     0          
T        Si     0.403400000000     0.319350000000     0.014600000000     0          
T        Si     0.333333333333     0.226450000000     0.086550000000     0          
T        Si     0.333333333333     0.272000000000     0.030250000000     0          
T        Si     0.333333333333     0.366600000000     0.030500000000     0          
T        Si     0.333333333333     0.134100000000     0.086550000000     0          
T        Si     0.333333333333     0.089150000000     0.029750000000     0          
T        Si     0.333333333333     0.412250000000     0.086350000000     0          
O        O      0.455266666667     0.319650000000     0.327500000000     0          
O        O      0.378033333333     0.347550000000     0.328500000000     0          
O        O      0.378033333333     0.291900000000     0.328500000000     0          
O        O      0.402300000000     0.319600000000     0.275150000000     0          
O        O      0.455333333333     0.180450000000     0.277200000000     0          
O        O      0.378066666667     0.208500000000     0.278200000000     0          
O        O      0.378033333333     0.152950000000     0.278500000000     0          
T        Si     0.403366666667     0.319700000000     0.314850000000     0          
T        Si     0.403400000000     0.180650000000     0.264600000000     0          
O        O      0.544733333333     0.180350000000     0.077500000000     0          
O        O      0.621966666667     0.152450000000     0.078500000000     0          
O        O      0.621966666667     0.208100000000     0.078500000000     0          
O        O      0.597700000000     0.180400000000     0.025150000000     0          
O        O      0.544666666667     0.319550000000     0.027200000000     0          
O        O      0.621933333333     0.291500000000     0.028200000000     0          
O        O      0.621966666667     0.347050000000     0.028500000000     0          
T        Si     0.596633333333     0.180300000000     0.064850000000     0          
T        Si     0.596600000000     0.319350000000     0.014600000000     0          
O        O      0.455266666667     0.180350000000     0.172500000000     0          
O        O      0.378033333333     0.152450000000     0.171500000000     0          
O        O      0.378033333333     0.208100000000     0.171500000000     0          
O        O      0.402300000000     0.180400000000     0.224850000000     0          
O        O      0.455333333333     0.319550000000     0.222800000000     0          
O        O      0.378066666667     0.291500000000     0.221800000000     0          
O        O      0.378033333333     0.347050000000     0.221500000000     0          
T        Si     0.403366666667     0.180300000000     0.185150000000     0          
T        Si     0.403400000000     0.319350000000     0.235400000000     0          
O        O      0.544733333333     0.319650000000     0.422500000000     0          
O        O      0.621966666667     0.347550000000     0.421500000000     0          
O        O      0.621966666667     0.291900000000     0.421500000000     0          
O        O      0.597700000000     0.319600000000     0.474850000000     0          
O        O      0.544666666667     0.180450000000     0.472800000000     0          
O        O      0.621933333333     0.208500000000     0.471800000000     0          
O        O      0.621966666667     0.152950000000     0.471500000000     0          
T        Si     0.596633333333     0.319700000000     0.435150000000     0          
T        Si     0.596600000000     0.180650000000     0.485400000000     0          
O        O      0.378066666667     0.430350000000     0.172500000000     0          
O        O      0.455300000000     0.402450000000     0.171500000000     0          
O        O      0.455300000000     0.458100000000     0.171500000000     0          
O        O      0.431033333333     0.430400000000     0.224850000000     0          
O        O      0.378000000000     0.069550000000     0.222800000000     0          
O        O      0.455266666667     0.041500000000     0.221800000000     0          
O        O      0.455300000000     0.097050000000     0.221500000000     0          
O        O      0.500000000000     0.485100000000     0.125000000000     0          
O        O      0.500000000000     0.004850000000     0.185400000000     0          
O        O      0.500000000000     0.000000000000     0.250000000000     0          
O        O      0.500000000000     0.133500000000     0.185000000000     0          
O        O      0.500000000000     0.138550000000     0.249750000000     0          
O        O      0.500000000000     0.375400000000     0.125000000000     0          
O        O      0.500000000000     0.355800000000     0.185600000000     0          
O        O      0.500000000000     0.154300000000     0.125000000000     0          
T        Si     0.429966666667     0.430300000000     0.185150000000     0          
T        Si     0.429933333333     0.069350000000     0.235400000000     0          
T        Si     0.500000000000     0.476450000000     0.163450000000     0          
T        Si     0.500000000000     0.022000000000     0.219750000000     0          
T        Si     0.500000000000     0.116600000000     0.219500000000     0          
T        Si     0.500000000000     0.384100000000     0.163450000000     0          
T        Si     0.500000000000     0.339150000000     0.220250000000     0          
T        Si     0.500000000000     0.162250000000     0.163650000000     0          
O        O      0.621933333333     0.069650000000     0.422500000000     0          
O        O      0.544700000000     0.097550000000     0.421500000000     0          
O        O      0.544700000000     0.041900000000     0.421500000000     0          
O        O      0.568966666667     0.069600000000     0.474850000000     0          
O        O      0.622000000000     0.430450000000     0.472800000000     0          
O        O      0.544733333333     0.458500000000     0.471800000000     0          
O        O      0.544700000000     0.402950000000     0.471500000000     0          
O        O      0.500000000000     0.014900000000     0.375000000000     0          
O        O      0.500000000000     0.495150000000     0.435400000000     0          
O        O      0.500000000000     0.000000000000     0.000000000000     0          
O        O      0.500000000000     0.366500000000     0.435000000000     0          
O        O      0.500000000000     0.361450000000     0.499750000000     0          
O        O      0.500000000000     0.124600000000     0.375000000000     0          
O        O      0.500000000000     0.144200000000     0.435600000000     0          
O        O      0.500000000000     0.345700000000     0.375000000000     0          
T        Si     0.570033333333     0.069700000000     0.435150000000     0          
T        Si     0.570066666667     0.430650000000     0.485400000000     0          
T        Si     0.500000000000     0.023550000000     0.413450000000     0          
T        Si     0.500000000000     0.478000000000     0.469750000000     0          
T        Si     0.500000000000     0.383400000000     0.469500000000     0          
T        Si     0.500000000000     0.115900000000     0.413450000000     0          
T        Si     0.500000000000     0.160850000000     0.470250000000     0          
T        Si     0.500000000000     0.337750000000     0.413650000000     0          
O        O      0.378066666667     0.069650000000     0.327500000000     0          
O        O      0.455300000000     0.097550000000     0.328500000000     0          
O        O      0.455300000000     0.041900000000     0.328500000000     0          
O        O      0.431033333333     0.069600000000     0.275150000000     0          
O        O      0.378000000000     0.430450000000     0.277200000000     0          
O        O      0.455266666667     0.458500000000     0.278200000000     0          
O        O      0.455300000000     0.402950000000     0.278500000000     0          
O        O      0.500000000000     0.495150000000     0.314600000000     0          
O        O      0.500000000000     0.366500000000     0.315000000000     0          
O        O      0.500000000000     0.361450000000     0.250250000000     0          
O        O      0.500000000000     0.144200000000     0.314400000000     0          
T        Si     0.429966666667     0.069700000000     0.314850000000     0          
T        Si     0.429933333333     0.430650000000     0.264600000000     0          
T        Si     0.500000000000     0.023550000000     0.336550000000     0          
T        Si     0.500000000000     0.478000000000     0.280250000000     0          
T        Si     0.500000000000     0.383400000000     0.280500000000     0          
T        Si     0.500000000000     0.115900000000     0.336550000000     0          
T        Si     0.500000000000     0.160850000000     0.279750000000     0          
T        Si     0.500000000000     0.337750000000     0.336350000000     0          
O        O      0.621933333333     0.430350000000     0.077500000000     0          
O        O      0.544700000000     0.402450000000     0.078500000000     0          
O        O      0.544700000000     0.458100000000     0.078500000000     0          
O        O      0.568966666667     0.430400000000     0.025150000000     0          
O        O      0.622000000000     0.069550000000     0.027200000000     0          
O        O      0.544733333333     0.041500000000     0.028200000000     0          
O        O      0.544700000000     0.097050000000     0.028500000000     0          
O        O      0.500000000000     0.004850000000     0.064600000000     0          
O        O      0.500000000000     0.133500000000     0.065000000000     0          
O        O      0.500000000000     0.138550000000     0.000250000000     0          
O        O      0.500000000000     0.355800000000     0.064400000000     0          
T        Si     0.570033333333     0.430300000000     0.064850000000     0          
T        Si     0.570066666667     0.069350000000     0.014600000000     0          
T        Si     0.500000000000     0.476450000000     0.086550000000     0          
T        Si     0.500000000000     0.022000000000     0.030250000000     0          
T        Si     0.500000000000     0.116600000000     0.030500000000     0          
T        Si     0.500000000000     0.384100000000     0.086550000000     0          
T        Si     0.500000000000     0.339150000000     0.029750000000     0          
T        Si     0.500000000000     0.162250000000     0.086350000000     0          
O        O      0.621933333333     0.069650000000     0.327500000000     0          
O        O      0.544700000000     0.097550000000     0.328500000000     0          
O        O      0.544700000000     0.041900000000     0.328500000000     0          
O        O      0.568966666667     0.069600000000     0.275150000000     0          
O        O      0.622000000000     0.430450000000     0.277200000000     0          
O        O      0.544733333333     0.458500000000     0.278200000000     0          
O        O      0.544700000000     0.402950000000     0.278500000000     0          
T        Si     0.570033333333     0.069700000000     0.314850000000     0          
T        Si     0.570066666667     0.430650000000     0.264600000000     0          
O        O      0.378066666667     0.430350000000     0.077500000000     0          
O        O      0.455300000000     0.402450000000     0.078500000000     0          
O        O      0.455300000000     0.458100000000     0.078500000000     0          
O        O      0.431033333333     0.430400000000     0.025150000000     0          
O        O      0.378000000000     0.069550000000     0.027200000000     0          
O        O      0.455266666667     0.041500000000     0.028200000000     0          
O        O      0.455300000000     0.097050000000     0.028500000000     0          
T        Si     0.429966666667     0.430300000000     0.064850000000     0          
T        Si     0.429933333333     0.069350000000     0.014600000000     0          
O        O      0.621933333333     0.430350000000     0.172500000000     0          
O        O      0.544700000000     0.402450000000     0.171500000000     0          
O        O      0.544700000000     0.458100000000     0.171500000000     0          
O        O      0.568966666667     0.430400000000     0.224850000000     0          
O        O      0.622000000000     0.069550000000     0.222800000000     0          
O        O      0.544733333333     0.041500000000     0.221800000000     0          
O        O      0.544700000000     0.097050000000     0.221500000000     0          
T        Si     0.570033333333     0.430300000000     0.185150000000     0          
T        Si     0.570066666667     0.069350000000     0.235400000000     0          
O        O      0.378066666667     0.069650000000     0.422500000000     0          
O        O      0.455300000000     0.097550000000     0.421500000000     0          
O        O      0.455300000000     0.041900000000     0.421500000000     0          
O        O      0.431033333333     0.069600000000     0.474850000000     0          
O        O      0.378000000000     0.430450000000     0.472800000000     0          
O        O      0.455266666667     0.458500000000     0.471800000000     0          
O        O      0.455300000000     0.402950000000     0.471500000000     0          
T        Si     0.429966666667     0.069700000000     0.435150000000     0          
T        Si     0.429933333333     0.430650000000     0.485400000000     0          
O        O      0.544733333333     0.180350000000     0.672500000000     0          
O        O      0.621966666667     0.152450000000     0.671500000000     0          
O        O      0.621966666667     0.208100000000     0.671500000000     0          
O        O      0.597700000000     0.180400000000     0.724850000000     0          
O        O      0.544666666667     0.319550000000     0.722800000000     0          
O        O      0.621933333333     0.291500000000     0.721800000000     0          
O        O      0.621966666667     0.347050000000     0.721500000000     0          
O        O      0.333333333333     0.235100000000     0.625000000000     0          
O        O      0.333333333333     0.254850000000     0.685400000000     0          
O        O      0.333333333333     0.250000000000     0.750000000000     0          
O        O      0.333333333333     0.383500000000     0.685000000000     0          
O        O      0.333333333333     0.388550000000     0.749750000000     0          
O        O      0.333333333333     0.125400000000     0.625000000000     0          
O        O      0.333333333333     0.105800000000     0.685600000000     0          
O        O      0.333333333333     0.404300000000     0.625000000000     0          
T        Si     0.596633333333     0.180300000000     0.685150000000     0          
T        Si     0.596600000000     0.319350000000     0.735400000000     0          
T        Si     0.333333333333     0.226450000000     0.663450000000     0          
T        Si     0.333333333333     0.272000000000     0.719750000000     0          
T        Si     0.333333333333     0.366600000000     0.719500000000     0          
T        Si     0.333333333333     0.134100000000     0.663450000000     0          
T        Si     0.333333333333     0.089150000000     0.720250000000     0          
T        Si     0.333333333333     0.412250000000     0.663650000000     0          
O        O      0.455266666667     0.319650000000     0.922500000000     0          
O        O      0.378033333333     0.347550000000     0.921500000000     0          
O        O      0.378033333333     0.291900000000     0.921500000000     0          
O        O      0.402300000000     0.319600000000     0.974850000000     0          
O        O      0.455333333333     0.180450000000     0.972800000000     0          
O        O      0.378066666667     0.208500000000     0.971800000000     0          
O        O      0.378033333333     0.152950000000     0.971500000000     0          
O        O      0.333333333333     0.264900000000     0.875000000000     0          
O        O      0.333333333333     0.245150000000     0.935400000000     0          
O        O      0.333333333333     0.250000000000     0.500000000000     0          
O        O      0.333333333333     0.116500000000     0.935000000000     0          
O        O      0.333333333333     0.111450000000     0.999750000000     0          
O        O      0.333333333333     0.374600000000     0.875000000000     0          
O        O      0.333333333333     0.394200000000     0.935600000000     0          
O        O      0.333333333333     0.095700000000     0.875000000000     0          
T        Si     0.403366666667     0.319700000000     0.935150000000     0          
T        Si     0.403400000000     0.180650000000     0.985400000000     0          
T        Si     0.333333333333     0.273550000000     0.913450000000     0          
T        Si     0.333333333333     0.228000000000     0.969750000000     0          
T        Si     0.333333333333     0.133400000000     0.969500000000     0          
T        Si     0.333333333333     0.365900000000     0.913450000000     0          
T        Si     0.333333333333     0.410850000000     0.970250000000     0          
T        Si     0.333333333333     0.087750000000     0.913650000000     0          
O        O      0.544733333333     0.319650000000     0.827500000000     0          
O        O      0.621966666667     0.347550000000     0.828500000000     0          
O        O      0.621966666667     0.291900000000     0.828500000000     0          
O        O      0.597700000000     0.319600000000     0.775150000000     0          
O        O      0.544666666667     0.180450000000     0.777200000000     0          
O        O      0.621933333333     0.208500000000     0.778200000000     0          
O        O      0.621966666667     0.152950000000     0.778500000000     0          
O        O      0.333333333333     0.245150000000     0.814600000000     0          
O        O      0.333333333333     0.116500000000     0.815000000000     0          
O        O      0.333333333333     0.111450000000     0.750250000000     0          
O        O      0.333333333333     0.394200000000     0.814400000000     0          
T        Si     0.596633333333     0.319700000000     0.814850000000     0          
T        Si     0.596600000000     0.180650000000     0.764600000000     0          
T        Si     0.333333333333     0.273550000000     0.836550000000     0          
T        Si     0.333333333333     0.228000000000     0.780250000000     0          
T        Si     0.333333333333     0.133400000000     0.780500000000     0          
T        Si     0.333333333333     0.365900000000     0.836550000000     0          
T        Si     0.333333333333     0.410850000000     0.779750000000     0          
T        Si     0.333333333333     0.087750000000     0.836350000000     0          
O        O      0.455266666667     0.180350000000     0.577500000000     0          
O        O      0.378033333333     0.152450000000     0.578500000000     0          
O        O      0.378033333333     0.208100000000     0.578500000000     0          
O        O      0.402300000000     0.180400000000     0.525150000000     0          
O        O      0.455333333333     0.319550000000     0.527200000000     0          
O        O      0.378066666667     0.291500000000     0.528200000000     0          
O        O      0.378033333333     0.347050000000     0.528500000000     0          
O        O      0.333333333333     0.254850000000     0.564600000000     0          
O        O      0.333333333333     0.383500000000     0.565000000000     0          
O        O      0.333333333333     0.388550000000     0.500250000000     0          
O        O      0.333333333333     0.105800000000     0.564400000000     0          
T        Si     0.403366666667     0.180300000000     0.564850000000     0          
T        Si     0.403400000000     0.319350000000     0.514600000000     0          
T        Si     0.333333333333     0.226450000000     0.586550000000     0          
T        Si     0.333333333333     0.272000000000     0.530250000000     0          
T        Si     0.333333333333     0.366600000000     0.530500000000     0          
T        Si     0.333333333333     0.134100000000     0.586550000000     0          
T        Si     0.333333333333     0.089150000000     0.529750000000     0          
T        Si     0.333333333333     0.412250000000     0.586350000000     0          
O        O      0.455266666667     0.319650000000     0.827500000000     0          
O        O      0.378033333333     0.347550000000     0.828500000000     0          
O        O      0.378033333333     0.291900000000     0.828500000000     0          
O        O      0.402300000000     0.319600000000     0.775150000000     0          
O        O      0.455333333333     0.180450000000     0.777200000000     0          
O        O      0.378066666667     0.208500000000     0.778200000000     0          
O        O      0.378033333333     0.152950000000     0.778500000000     0          
T        Si     0.403366666667     0.319700000000     0.814850000000     0          
T        Si     0.403400000000     0.180650000000     0.764600000000     0          
O        O      0.544733333333     0.180350000000     0.577500000000     0          
O        O      0.621966666667     0.152450000000     0.578500000000     0          
O        O      0.621966666667     0.208100000000     0.578500000000     0          
O        O      0.597700000000     0.180400000000     0.525150000000     0          
O        O      0.544666666667     0.319550000000     0.527200000000     0          
O        O      0.621933333333     0.291500000000     0.528200000000     0          
O        O      0.621966666667     0.347050000000     0.528500000000     0          
T        Si     0.596633333333     0.180300000000     0.564850000000     0          
T        Si     0.596600000000     0.319350000000     0.514600000000     0          
O        O      0.455266666667     0.180350000000     0.672500000000     0          
O        O      0.378033333333     0.152450000000     0.671500000000     0          
O        O      0.378033333333     0.208100000000     0.671500000000     0          
O        O      0.402300000000     0.180400000000     0.724850000000     0          
O        O      0.455333333333     0.319550000000     0.722800000000     0          
O        O      0.378066666667     0.291500000000     0.721800000000     0          
O        O      0.378033333333     0.347050000000     0.721500000000     0          
T        Si     0.403366666667     0.180300000000     0.685150000000     0          
T        Si     0.403400000000     0.319350000000     0.735400000000     0          
O        O      0.544733333333     0.319650000000     0.922500000000     0          
O        O      0.621966666667     0.347550000000     0.921500000000     0          
O        O      0.621966666667     0.291900000000     0.921500000000     0          
O        O      0.597700000000     0.319600000000     0.974850000000     0          
O        O      0.544666666667     0.180450000000     0.972800000000     0          
O        O      0.621933333333     0.208500000000     0.971800000000     0          
O        O      0.621966666667     0.152950000000     0.971500000000     0          
T        Si     0.596633333333     0.319700000000     0.935150000000     0          
T        Si     0.596600000000     0.180650000000     0.985400000000     0          
O        O      0.378066666667     0.430350000000     0.672500000000     0          
O        O      0.455300000000     0.402450000000     0.671500000000     0          
O        O      0.455300000000     0.458100000000     0.671500000000     0          
O        O      0.431033333333     0.430400000000     0.724850000000     0          
O        O      0.378000000000     0.069550000000     0.722800000000     0          
O        O      0.455266666667     0.041500000000     0.721800000000     0          
O        O      0.455300000000     0.097050000000     0.721500000000     0          
O        O      0.500000000000     0.485100000000     0.625000000000     0          
O        O      0.500000000000     0.004850000000     0.685400000000     0          
O        O      0.500000000000     0.000000000000     0.750000000000     0          
O        O      0.500000000000     0.133500000000     0.685000000000     0          
O        O      0.500000000000     0.138550000000     0.749750000000     0          
O        O      0.500000000000     0.375400000000     0.625000000000     0          
O        O      0.500000000000     0.355800000000     0.685600000000     0          
O        O      0.500000000000     0.154300000000     0.625000000000     0          
T        Si     0.429966666667     0.430300000000     0.685150000000     0          
T        Si     0.429933333333     0.069350000000     0.735400000000     0          
T        Si     0.500000000000     0.476450000000     0.663450000000     0          
T        Si     0.500000000000     0.022000000000     0.719750000000     0          
T        Si     0.500000000000     0.116600000000     0.719500000000     0          
T        Si     0.500000000000     0.384100000000     0.663450000000     0          
T        Si     0.500000000000     0.339150000000     0.720250000000     0          
T        Si     0.500000000000     0.162250000000     0.663650000000     0          
O        O      0.621933333333     0.069650000000     0.922500000000     0          
O        O      0.544700000000     0.097550000000     0.921500000000     0          
O        O      0.544700000000     0.041900000000     0.921500000000     0          
O        O      0.568966666667     0.069600000000     0.974850000000     0          
O        O      0.622000000000     0.430450000000     0.972800000000     0          
O        O      0.544733333333     0.458500000000     0.971800000000     0          
O        O      0.544700000000     0.402950000000     0.971500000000     0          
O        O      0.500000000000     0.014900000000     0.875000000000     0          
O        O      0.500000000000     0.495150000000     0.935400000000     0          
O        O      0.500000000000     0.000000000000     0.500000000000     0          
O        O      0.500000000000     0.366500000000     0.935000000000     0          
O        O      0.500000000000     0.361450000000     0.999750000000     0          
O        O      0.500000000000     0.124600000000     0.875000000000     0          
O        O      0.500000000000     0.144200000000     0.935600000000     0          
O        O      0.500000000000     0.345700000000     0.875000000000     0          
T        Si     0.570033333333     0.069700000000     0.935150000000     0          
T        Si     0.570066666667     0.430650000000     0.985400000000     0          
T        Si     0.500000000000     0.023550000000     0.913450000000     0          
T        Si     0.500000000000     0.478000000000     0.969750000000     0          
T        Si     0.500000000000     0.383400000000     0.969500000000     0          
T        Si     0.500000000000     0.115900000000     0.913450000000     0          
T        Si     0.500000000000     0.160850000000     0.970250000000     0          
T        Si     0.500000000000     0.337750000000     0.913650000000     0          
O        O      0.378066666667     0.069650000000     0.827500000000     0          
O        O      0.455300000000     0.097550000000     0.828500000000     0          
O        O      0.455300000000     0.041900000000     0.828500000000     0          
O        O      0.431033333333     0.069600000000     0.775150000000     0          
O        O      0.378000000000     0.430450000000     0.777200000000     0          
O        O      0.455266666667     0.458500000000     0.778200000000     0          
O        O      0.455300000000     0.402950000000     0.778500000000     0          
O        O      0.500000000000     0.495150000000     0.814600000000     0          
O        O      0.500000000000     0.366500000000     0.815000000000     0          
O        O      0.500000000000     0.361450000000     0.750250000000     0          
O        O      0.500000000000     0.144200000000     0.814400000000     0          
T        Si     0.429966666667     0.069700000000     0.814850000000     0          
T        Si     0.429933333333     0.430650000000     0.764600000000     0          
T        Si     0.500000000000     0.023550000000     0.836550000000     0          
T        Si     0.500000000000     0.478000000000     0.780250000000     0          
T        Si     0.500000000000     0.383400000000     0.780500000000     0          
T        Si     0.500000000000     0.115900000000     0.836550000000     0          
T        Si     0.500000000000     0.160850000000     0.779750000000     0          
T        Si     0.500000000000     0.337750000000     0.836350000000     0          
O        O      0.621933333333     0.430350000000     0.577500000000     0          
O        O      0.544700000000     0.402450000000     0.578500000000     0          
O        O      0.544700000000     0.458100000000     0.578500000000     0          
O        O      0.568966666667     0.430400000000     0.525150000000     0          
O        O      0.622000000000     0.069550000000     0.527200000000     0          
O        O      0.544733333333     0.041500000000     0.528200000000     0          
O        O      0.544700000000     0.097050000000     0.528500000000     0          
O        O      0.500000000000     0.004850000000     0.564600000000     0          
O        O      0.500000000000     0.133500000000     0.565000000000     0          
O        O      0.500000000000     0.138550000000     0.500250000000     0          
O        O      0.500000000000     0.355800000000     0.564400000000     0          
T        Si     0.570033333333     0.430300000000     0.564850000000     0          
T        Si     0.570066666667     0.069350000000     0.514600000000     0          
T        Si     0.500000000000     0.476450000000     0.586550000000     0          
T        Si     0.500000000000     0.022000000000     0.530250000000     0          
T        Si     0.500000000000     0.116600000000     0.530500000000     0          
T        Si     0.500000000000     0.384100000000     0.586550000000     0          
T        Si     0.500000000000     0.339150000000     0.529750000000     0          
T        Si     0.500000000000     0.162250000000     0.586350000000     0          
O        O      0.621933333333     0.069650000000     0.827500000000     0          
O        O      0.544700000000     0.097550000000     0.828500000000     0          
O        O      0.544700000000     0.041900000000     0.828500000000     0          
O        O      0.568966666667     0.069600000000     0.775150000000     0          
O        O      0.622000000000     0.430450000000     0.777200000000     0          
O        O      0.544733333333     0.458500000000     0.778200000000     0          
O        O      0.544700000000     0.402950000000     0.778500000000     0          
T        Si     0.570033333333     0.069700000000     0.814850000000     0          
T        Si     0.570066666667     0.430650000000     0.764600000000     0          
O        O      0.378066666667     0.430350000000     0.577500000000     0          
O        O      0.455300000000     0.402450000000     0.578500000000     0          
O        O      0.455300000000     0.458100000000     0.578500000000     0          
O        O      0.431033333333     0.430400000000     0.525150000000     0          
O        O      0.378000000000     0.069550000000     0.527200000000     0          
O        O      0.455266666667     0.041500000000     0.528200000000     0          
O        O      0.455300000000     0.097050000000     0.528500000000     0          
T        Si     0.429966666667     0.430300000000     0.564850000000     0          
T        Si     0.429933333333     0.069350000000     0.514600000000     0          
O        O      0.621933333333     0.430350000000     0.672500000000     0          
O        O      0.544700000000     0.402450000000     0.671500000000     0          
O        O      0.544700000000     0.458100000000     0.671500000000     0          
O        O      0.568966666667     0.430400000000     0.724850000000     0          
O        O      0.622000000000     0.069550000000     0.722800000000     0          
O        O      0.544733333333     0.041500000000     0.721800000000     0          
O        O      0.544700000000     0.097050000000     0.721500000000     0          
T        Si     0.570033333333     0.430300000000     0.685150000000     0          
T        Si     0.570066666667     0.069350000000     0.735400000000     0          
O        O      0.378066666667     0.069650000000     0.922500000000     0          
O        O      0.455300000000     0.097550000000     0.921500000000     0          
O        O      0.455300000000     0.041900000000     0.921500000000     0          
O        O      0.431033333333     0.069600000000     0.974850000000     0          
O        O      0.378000000000     0.430450000000     0.972800000000     0          
O        O      0.455266666667     0.458500000000     0.971800000000     0          
O        O      0.455300000000     0.402950000000     0.971500000000     0          
T        Si     0.429966666667     0.069700000000     0.935150000000     0          
T        Si     0.429933333333     0.430650000000     0.985400000000     0          
O        O      0.544733333333     0.680350000000     0.172500000000     0          
O        O      0.621966666667     0.652450000000     0.171500000000     0          
O        O      0.621966666667     0.708100000000     0.171500000000     0          
O        O      0.597700000000     0.680400000000     0.224850000000     0          
O        O      0.544666666667     0.819550000000     0.222800000000     0          
O        O      0.621933333333     0.791500000000     0.221800000000     0          
O        O      0.621966666667     0.847050000000     0.221500000000     0          
O        O      0.333333333333     0.735100000000     0.125000000000     0          
O        O      0.333333333333     0.754850000000     0.185400000000     0          
O        O      0.333333333333     0.750000000000     0.250000000000     0          
O        O      0.333333333333     0.883500000000     0.185000000000     0          
O        O      0.333333333333     0.888550000000     0.249750000000     0          
O        O      0.333333333333     0.625400000000     0.125000000000     0          
O        O      0.333333333333     0.605800000000     0.185600000000     0          
O        O      0.333333333333     0.904300000000     0.125000000000     0          
T        Si     0.596633333333     0.680300000000     0.185150000000     0          
T        Si     0.596600000000     0.819350000000     0.235400000000     0          
T        Si     0.333333333333     0.726450000000     0.163450000000     0          
T        Si     0.333333333333     0.772000000000     0.219750000000     0          
T        Si     0.333333333333     0.866600000000     0.219500000000     0          
T        Si     0.333333333333     0.634100000000     0.163450000000     0          
T        Si     0.333333333333     0.589150000000     0.220250000000     0          
T        Si     0.333333333333     0.912250000000     0.163650000000     0          
O        O      0.455266666667     0.819650000000     0.422500000000     0          
O        O      0.378033333333     0.847550000000     0.421500000000     0          
O        O      0.378033333333     0.791900000000     0.421500000000     0          
O        O      0.402300000000     0.819600000000     0.474850000000     0          
O        O      0.455333333333     0.680450000000     0.472800000000     0          
O        O      0.378066666667     0.708500000000     0.471800000000     0          
O        O      0.378033333333     0.652950000000     0.471500000000     0          
O        O      0.333333333333     0.764900000000     0.375000000000     0          
O        O      0.333333333333     0.745150000000     0.435400000000     0          
O        O      0.333333333333     0.750000000000     0.000000000000     0          
O        O      0.333333333333     0.616500000000     0.435000000000     0          
O        O      0.333333333333     0.611450000000     0.499750000000     0          
O        O      0.333333333333     0.874600000000     0.375000000000     0          
O        O      0.333333333333     0.894200000000     0.435600000000     0          
O        O      0.333333333333     0.595700000000     0.375000000000     0          
T        Si     0.403366666667     0.819700000000     0.435150000000     0          
T        Si     0.403400000000     0.680650000000     0.485400000000     0          
T        Si     0.333333333333     0.773550000000     0.413450000000     0          
T        Si     0.333333333333     0.728000000000     0.469750000000     0          
T        Si     0.333333333333     0.633400000000     0.469500000000     0          
T        Si     0.333333333333     0.865900000000     0.413450000000     0          
T        Si     0.333333333333     0.910850000000     0.470250000000     0          
T        Si     0.333333333333     0.587750000000     0.413650000000     0          
O        O      0.544733333333     0.819650000000     0.327500000000     0          
O        O      0.621966666667     0.847550000000     0.328500000000     0          
O        O      0.621966666667     0.791900000000     0.328500000000     0          
O        O      0.597700000000     0.819600000000     0.275150000000     0          
O        O      0.544666666667     0.680450000000     0.277200000000     0          
O        O      0.621933333333     0.708500000000     0.278200000000     0          
O        O      0.621966666667     0.652950000000     0.278500000000     0          
O        O      0.333333333333     0.745150000000     0.314600000000     0          
O        O      0.333333333333     0.616500000000     0.315000000000     0          
O        O      0.333333333333     0.611450000000     0.250250000000     0          
O        O      0.333333333333     0.894200000000     0.314400000000     0          
T        Si     0.596633333333     0.819700000000     0.314850000000     0          
T        Si     0.596600000000     0.680650000000     0.264600000000     0          
T        Si     0.333333333333     0.773550000000     0.336550000000     0          
T        Si     0.333333333333     0.728000000000     0.280250000000     0          
T        Si     0.333333333333     0.633400000000     0.280500000000     0          
T        Si     0.333333333333     0.865900000000     0.336550000000     0          
T        Si     0.333333333333     0.910850000000     0.279750000000     0          
T        Si     0.333333333333     0.587750000000     0.336350000000     0          
O        O      0.455266666667     0.680350000000     0.077500000000     0          
O        O      0.378033333333     0.652450000000     0.078500000000     0          
O        O      0.378033333333     0.708100000000     0.078500000000     0          
O        O      0.402300000000     0.680400000000     0.025150000000     0          
O        O      0.455333333333     0.819550000000     0.027200000000     0          
O        O      0.378066666667     0.791500000000     0.028200000000     0          
O        O      0.378033333333     0.847050000000     0.028500000000     0          
O        O      0.333333333333     0.754850000000     0.064600000000     0          
O        O      0.333333333333     0.883500000000     0.065000000000     0          
O        O      0.333333333333     0.888550000000     0.000250000000     0          
O        O      0.333333333333     0.605800000000     0.064400000000     0          
T        Si     0.403366666667     0.680300000000     0.064850000000     0          
T        Si     0.403400000000     0.819350000000     0.014600000000     0          
T        Si     0.333333333333     0.726450000000     0.086550000000     0          
T        Si     0.333333333333     0.772000000000     0.030250000000     0          
T        Si     0.333333333333     0.866600000000     0.030500000000     0          
T        Si     0.333333333333     0.634100000000     0.086550000000     0          
T        Si     0.333333333333     0.589150000000     0.029750000000     0          
T        Si     0.333333333333     0.912250000000     0.086350000000     0          
O        O      0.455266666667     0.819650000000     0.327500000000     0          
O        O      0.378033333333     0.847550000000     0.328500000000     0          
O        O      0.378033333333     0.791900000000     0.328500000000     0          
O        O      0.402300000000     0.819600000000     0.275150000000     0          
O        O      0.455333333333     0.680450000000     0.277200000000     0          
O        O      0.378066666667     0.708500000000     0.278200000000     0          
O        O      0.378033333333     0.652950000000     0.278500000000     0          
T        Si     0.403366666667     0.819700000000     0.314850000000     0          
T        Si     0.403400000000     0.680650000000     0.264600000000     0          
O        O      0.544733333333     0.680350000000     0.077500000000     0          
O        O      0.621966666667     0.652450000000     0.078500000000     0          
O        O      0.621966666667     0.708100000000     0.078500000000     0          
O        O      0.597700000000     0.680400000000     0.025150000000     0          
O        O      0.544666666667     0.819550000000     0.027200000000     0          
O        O      0.621933333333     0.791500000000     0.028200000000     0          
O        O      0.621966666667     0.847050000000     0.028500000000     0          
T        Si     0.596633333333     0.680300000000     0.064850000000     0          
T        Si     0.596600000000     0.819350000000     0.014600000000     0          
O        O      0.455266666667     0.680350000000     0.172500000000     0          
O        O      0.378033333333     0.652450000000     0.171500000000     0          
O        O      0.378033333333     0.708100000000     0.171500000000     0          
O        O      0.402300000000     0.680400000000     0.224850000000     0          
O        O      0.455333333333     0.819550000000     0.222800000000     0          
O        O      0.378066666667     0.791500000000     0.221800000000     0          
O        O      0.378033333333     0.847050000000     0.221500000000     0          
T        Si     0.403366666667     0.680300000000     0.185150000000     0          
T        Si     0.403400000000     0.819350000000     0.235400000000     0          
O        O      0.544733333333     0.819650000000     0.422500000000     0          
O        O      0.621966666667     0.847550000000     0.421500000000     0          
O        O      0.621966666667     0.791900000000     0.421500000000     0          
O        O      0.597700000000     0.819600000000     0.474850000000     0          
O        O      0.544666666667     0.680450000000     0.472800000000     0          
O        O      0.621933333333     0.708500000000     0.471800000000     0          
O        O      0.621966666667     0.652950000000     0.471500000000     0          
T        Si     0.596633333333     0.819700000000     0.435150000000     0          
T        Si     0.596600000000     0.680650000000     0.485400000000     0          
O        O      0.378066666667     0.930350000000     0.172500000000     0          
O        O      0.455300000000     0.902450000000     0.171500000000     0          
O        O      0.455300000000     0.958100000000     0.171500000000     0          
O        O      0.431033333333     0.930400000000     0.224850000000     0          
O        O      0.378000000000     0.569550000000     0.222800000000     0          
O        O      0.455266666667     0.541500000000     0.221800000000     0          
O        O      0.455300000000     0.597050000000     0.221500000000     0          
O        O      0.500000000000     0.985100000000     0.125000000000     0          
O        O      0.500000000000     0.504850000000     0.185400000000     0          
O        O      0.500000000000     0.500000000000     0.250000000000     0          
O        O      0.500000000000     0.633500000000     0.185000000000     0          
O        O      0.500000000000     0.638550000000     0.249750000000     0          
O        O      0.500000000000     0.875400000000     0.125000000000     0          
O        O      0.500000000000     0.855800000000     0.185600000000     0          
O        O      0.500000000000     0.654300000000     0.125000000000     0          
T        Si     0.429966666667     0.930300000000     0.185150000000     0          
T        Si     0.429933333333     0.569350000000     0.235400000000     0          
T        Si     0.500000000000     0.976450000000     0.163450000000     0          
T        Si     0.500000000000     0.522000000000     0.219750000000     0          
T        Si     0.500000000000     0.616600000000     0.219500000000     0          
T        Si     0.500000000000     0.884100000000     0.163450000000     0          
T        Si     0.500000000000     0.839150000000     0.220250000000     0          
T        Si     0.500000000000     0.662250000000     0.163650000000     0          
O        O      0.621933333333     0.569650000000     0.422500000000     0          
O        O      0.544700000000     0.597550000000     0.421500000000     0          
O        O      0.544700000000     0.541900000000     0.421500000000     0          
O        O      0.568966666667     0.569600000000     0.474850000000     0          
O        O      0.622000000000     0.930450000000     0.472800000000     0          
O        O      0.544733333333     0.958500000000     0.471800000000     0          
O        O      0.544700000000     0.902950000000     0.471500000000     0          
O        O      0.500000000000     0.514900000000     0.375000000000     0          
O        O      0.500000000000     0.995150000000     0.435400000000     0          
O        O      0.500000000000     0.500000000000     0.000000000000     0          
O        O      0.500000000000     0.866500000000     0.435000000000     0          
O        O      0.500000000000     0.861450000000     0.499750000000     0          
O        O      0.500000000000     0.624600000000     0.375000000000     0          
O        O      0.500000000000     0.644200000000     0.435600000000     0          
O        O      0.500000000000     0.845700000000     0.375000000000     0          
T        Si     0.570033333333     0.569700000000     0.435150000000     0          
T        Si     0.570066666667     0.930650000000     0.485400000000     0          
T        Si     0.500000000000     0.523550000000     0.413450000000     0          
T        Si     0.500000000000     0.978000000000     0.469750000000     0          
T        Si     0.500000000000     0.883400000000     0.469500000000     0          
T        Si     0.500000000000     0.615900000000     0.413450000000     0          
T        Si     0.500000000000     0.660850000000     0.470250000000     0          
T        Si     0.500000000000     0.837750000000     0.413650000000     0          
O        O      0.378066666667     0.569650000000     0.327500000000     0          
O        O      0.455300000000     0.597550000000     0.328500000000     0          
O        O      0.455300000000     0.541900000000     0.328500000000     0          
O        O      0.431033333333     0.569600000000     0.275150000000     0          
O        O      0.378000000000     0.930450000000     0.277200000000     0          
O        O      0.455266666667     0.958500000000     0.278200000000     0          
O        O      0.455300000000     0.902950000000     0.278500000000     0          
O        O      0.500000000000     0.995150000000     0.314600000000     0          
O        O      0.500000000000     0.866500000000     0.315000000000     0          
O        O      0.500000000000     0.861450000000     0.250250000000     0          
O        O      0.500000000000     0.644200000000     0.314400000000     0          
T        Si     0.429966666667     0.569700000000     0.314850000000     0          
T        Si     0.429933333333     0.930650000000     0.264600000000     0          
T        Si     0.500000000000     0.523550000000     0.336550000000     0          
T        Si     0.500000000000     0.978000000000     0.280250000000     0          
T        Si     0.500000000000     0.883400000000     0.280500000000     0          
T        Si     0.500000000000     0.615900000000     0.336550000000     0          
T        Si     0.500000000000     0.660850000000     0.279750000000     0          
T        Si     0.500000000000     0.837750000000     0.336350000000     0          
O        O      0.621933333333     0.930350000000     0.077500000000     0          
O        O      0.544700000000     0.902450000000     0.078500000000     0          
O        O      0.544700000000     0.958100000000     0.078500000000     0          
O        O      0.568966666667     0.930400000000     0.025150000000     0          
O        O      0.622000000000     0.569550000000     0.027200000000     0          
O        O      0.544733333333     0.541500000000     0.028200000000     0          
O        O      0.544700000000     0.597050000000     0.028500000000     0          
O        O      0.500000000000     0.504850000000     0.064600000000     0          
O        O      0.500000000000     0.633500000000     0.065000000000     0          
O        O      0.500000000000     0.638550000000     0.000250000000     0          
O        O      0.500000000000     0.855800000000     0.064400000000     0          
T        Si     0.570033333333     0.930300000000     0.064850000000     0          
T        Si     0.570066666667     0.569350000000     0.014600000000     0          
T        Si     0.500000000000     0.976450000000     0.086550000000     0          
T        Si     0.500000000000     0.522000000000     0.030250000000     0          
T        Si     0.500000000000     0.616600000000     0.030500000000     0          
T        Si     0.500000000000     0.884100000000     0.086550000000     0          
T        Si     0.500000000000     0.839150000000     0.029750000000     0          
T        Si     0.500000000000     0.662250000000     0.086350000000     0          
O        O      0.621933333333     0.569650000000     0.327500000000     0          
O        O      0.544700000000     0.597550000000     0.328500000000     0          
O        O      0.544700000000     0.541900000000     0.328500000000     0          
O        O      0.568966666667     0.569600000000     0.275150000000     0          
O        O      0.622000000000     0.930450000000     0.277200000000     0          
O        O      0.544733333333     0.958500000000     0.278200000000     0          
O        O      0.544700000000     0.902950000000     0.278500000000     0          
T        Si     0.570033333333     0.569700000000     0.314850000000     0          
T        Si     0.570066666667     0.930650000000     0.264600000000     0          
O        O      0.378066666667     0.930350000000     0.077500000000     0          
O        O      0.455300000000     0.902450000000     0.078500000000     0          
O        O      0.455300000000     0.958100000000     0.078500000000     0          
O        O      0.431033333333     0.930400000000     0.025150000000     0          
O        O      0.378000000000     0.569550000000     0.027200000000     0          
O        O      0.455266666667     0.541500000000     0.028200000000     0          
O        O      0.455300000000     0.597050000000     0.028500000000     0          
T        Si     0.429966666667     0.930300000000     0.064850000000     0          
T        Si     0.429933333333     0.569350000000     0.014600000000     0          
O        O      0.621933333333     0.930350000000     0.172500000000     0          
O        O      0.544700000000     0.902450000000     0.171500000000     0          
O        O      0.544700000000     0.958100000000     0.171500000000     0          
O        O      0.568966666667     0.930400000000     0.224850000000     0          
O        O      0.622000000000     0.569550000000     0.222800000000     0          
O        O      0.544733333333     0.541500000000     0.221800000000     0          
O        O      0.544700000000     0.597050000000     0.221500000000     0          
T        Si     0.570033333333     0.930300000000     0.185150000000     0          
T        Si     0.570066666667     0.569350000000     0.235400000000     0          
O        O      0.378066666667     0.569650000000     0.422500000000     0          
O        O      0.455300000000     0.597550000000     0.421500000000     0          
O        O      0.455300000000     0.541900000000     0.421500000000     0          
O        O      0.431033333333     0.569600000000     0.474850000000     0          
O        O      0.378000000000     0.930450000000     0.472800000000     0          
O        O      0.455266666667     0.958500000000     0.471800000000     0          
O        O      0.455300000000     0.902950000000     0.471500000000     0          
T        Si     0.429966666667     0.569700000000     0.435150000000     0          
T        Si     0.429933333333     0.930650000000     0.485400000000     0          
O        O      0.544733333333     0.680350000000     0.672500000000     0          
O        O      0.621966666667     0.652450000000     0.671500000000     0          
O        O      0.621966666667     0.708100000000     0.671500000000     0          
O        O      0.597700000000     0.680400000000     0.724850000000     0          
O        O      0.544666666667     0.819550000000     0.722800000000     0          
O        O      0.621933333333     0.791500000000     0.721800000000     0          
O        O      0.621966666667     0.847050000000     0.721500000000     0          
O        O      0.333333333333     0.735100000000     0.625000000000     0          
O        O      0.333333333333     0.754850000000     0.685400000000     0          
O        O      0.333333333333     0.750000000000     0.750000000000     0          
O        O      0.333333333333     0.883500000000     0.685000000000     0          
O        O      0.333333333333     0.888550000000     0.749750000000     0          
O        O      0.333333333333     0.625400000000     0.625000000000     0          
O        O      0.333333333333     0.605800000000     0.685600000000     0          
O        O      0.333333333333     0.904300000000     0.625000000000     0          
T        Si     0.596633333333     0.680300000000     0.685150000000     0          
T        Si     0.596600000000     0.819350000000     0.735400000000     0          
T        Si     0.333333333333     0.726450000000     0.663450000000     0          
T        Si     0.333333333333     0.772000000000     0.719750000000     0          
T        Si     0.333333333333     0.866600000000     0.719500000000     0          
T        Si     0.333333333333     0.634100000000     0.663450000000     0          
T        Si     0.333333333333     0.589150000000     0.720250000000     0          
T        Si     0.333333333333     0.912250000000     0.663650000000     0          
O        O      0.455266666667     0.819650000000     0.922500000000     0          
O        O      0.378033333333     0.847550000000     0.921500000000     0          
O        O      0.378033333333     0.791900000000     0.921500000000     0          
O        O      0.402300000000     0.819600000000     0.974850000000     0          
O        O      0.455333333333     0.680450000000     0.972800000000     0          
O        O      0.378066666667     0.708500000000     0.971800000000     0          
O        O      0.378033333333     0.652950000000     0.971500000000     0          
O        O      0.333333333333     0.764900000000     0.875000000000     0          
O        O      0.333333333333     0.745150000000     0.935400000000     0          
O        O      0.333333333333     0.750000000000     0.500000000000     0          
O        O      0.333333333333     0.616500000000     0.935000000000     0          
O        O      0.333333333333     0.611450000000     0.999750000000     0          
O        O      0.333333333333     0.874600000000     0.875000000000     0          
O        O      0.333333333333     0.894200000000     0.935600000000     0          
O        O      0.333333333333     0.595700000000     0.875000000000     0          
T        Si     0.403366666667     0.819700000000     0.935150000000     0          
T        Si     0.403400000000     0.680650000000     0.985400000000     0          
T        Si     0.333333333333     0.773550000000     0.913450000000     0          
T        Si     0.333333333333     0.728000000000     0.969750000000     0          
T        Si     0.333333333333     0.633400000000     0.969500000000     0          
T        Si     0.333333333333     0.865900000000     0.913450000000     0          
T        Si     0.333333333333     0.910850000000     0.970250000000     0          
T        Si     0.333333333333     0.587750000000     0.913650000000     0          
O        O      0.544733333333     0.819650000000     0.827500000000     0          
O        O      0.621966666667     0.847550000000     0.828500000000     0          
O        O      0.621966666667     0.791900000000     0.828500000000     0          
O        O      0.597700000000     0.819600000000     0.775150000000     0          
O        O      0.544666666667     0.680450000000     0.777200000000     0          
O        O      0.621933333333     0.708500000000     0.778200000000     0          
O        O      0.621966666667     0.652950000000     0.778500000000     0          
O        O      0.333333333333     0.745150000000     0.814600000000     0          
O        O      0.333333333333     0.616500000000     0.815000000000     0          
O        O      0.333333333333     0.611450000000     0.750250000000     0          
O        O      0.333333333333     0.894200000000     0.814400000000     0          
T        Si     0.596633333333     0.819700000000     0.814850000000     0          
T        Si     0.596600000000     0.680650000000     0.764600000000     0          
T        Si     0.333333333333     0.773550000000     0.836550000000     0          
T        Si     0.333333333333     0.728000000000     0.780250000000     0          
T        Si     0.333333333333     0.633400000000     0.780500000000     0          
T        Si     0.333333333333     0.865900000000     0.836550000000     0          
T        Si     0.333333333333     0.910850000000     0.779750000000     0          
T        Si     0.333333333333     0.587750000000     0.836350000000     0          
O        O      0.455266666667     0.680350000000     0.577500000000     0          
O        O      0.378033333333     0.652450000000     0.578500000000     0          
O        O      0.378033333333     0.708100000000     0.578500000000     0          
O        O      0.402300000000     0.680400000000     0.525150000000     0          
O        O      0.455333333333     0.819550000000     0.527200000000     0          
O        O      0.378066666667     0.791500000000     0.528200000000     0          
O        O      0.378033333333     0.847050000000     0.528500000000     0          
O        O      0.333333333333     0.754850000000     0.564600000000     0          
O        O      0.333333333333     0.883500000000     0.565000000000     0          
O        O      0.333333333333     0.888550000000     0.500250000000     0          
O        O      0.333333333333     0.605800000000     0.564400000000     0          
T        Si     0.403366666667     0.680300000000     0.564850000000     0          
T        Si     0.403400000000     0.819350000000     0.514600000000     0          
T        Si     0.333333333333     0.726450000000     0.586550000000     0          
T        Si     0.333333333333     0.772000000000     0.530250000000     0          
T        Si     0.333333333333     0.866600000000     0.530500000000     0          
T        Si     0.333333333333     0.634100000000     0.586550000000     0          
T        Si     0.333333333333     0.589150000000     0.529750000000     0          
T        Si     0.333333333333     0.912250000000     0.586350000000     0          
O        O      0.455266666667     0.819650000000     0.827500000000     0          
O        O      0.378033333333     0.847550000000     0.828500000000     0          
O        O      0.378033333333     0.791900000000     0.828500000000     0          
O        O      0.402300000000     0.819600000000     0.775150000000     0          
O        O      0.455333333333     0.680450000000     0.777200000000     0          
O        O      0.378066666667     0.708500000000     0.778200000000     0          
O        O      0.378033333333     0.652950000000     0.778500000000     0          
T        Si     0.403366666667     0.819700000000     0.814850000000     0          
T        Si     0.403400000000     0.680650000000     0.764600000000     0          
O        O      0.544733333333     0.680350000000     0.577500000000     0          
O        O      0.621966666667     0.652450000000     0.578500000000     0          
O        O      0.621966666667     0.708100000000     0.578500000000     0          
O        O      0.597700000000     0.680400000000     0.525150000000     0          
O        O      0.544666666667     0.819550000000     0.527200000000     0          
O        O      0.621933333333     0.791500000000     0.528200000000     0          
O        O      0.621966666667     0.847050000000     0.528500000000     0          
T        Si     0.596633333333     0.680300000000     0.564850000000     0          
T        Si     0.596600000000     0.819350000000     0.514600000000     0          
O        O      0.455266666667     0.680350000000     0.672500000000     0          
O        O      0.378033333333     0.652450000000     0.671500000000     0          
O        O      0.378033333333     0.708100000000     0.671500000000     0          
O        O      0.402300000000     0.680400000000     0.724850000000     0          
O        O      0.455333333333     0.819550000000     0.722800000000     0          
O        O      0.378066666667     0.791500000000     0.721800000000     0          
O        O      0.378033333333     0.847050000000     0.721500000000     0          
T        Si     0.403366666667     0.680300000000     0.685150000000     0          
T        Si     0.403400000000     0.819350000000     0.735400000000     0          
O        O      0.544733333333     0.819650000000     0.922500000000     0          
O        O      0.621966666667     0.847550000000     0.921500000000     0          
O        O      0.621966666667     0.791900000000     0.921500000000     0          
O        O      0.597700000000     0.819600000000     0.974850000000     0          
O        O      0.544666666667     0.680450000000     0.972800000000     0          
O        O      0.621933333333     0.708500000000     0.971800000000     0          
O        O      0.621966666667     0.652950000000     0.971500000000     0          
T        Si     0.596633333333     0.819700000000     0.935150000000     0          
T        Si     0.596600000000     0.680650000000     0.985400000000     0          
O        O      0.378066666667     0.930350000000     0.672500000000     0          
O        O      0.455300000000     0.902450000000     0.671500000000     0          
O        O      0.455300000000     0.958100000000     0.671500000000     0          
O        O      0.431033333333     0.930400000000     0.724850000000     0          
O        O      0.378000000000     0.569550000000     0.722800000000     0          
O        O      0.455266666667     0.541500000000     0.721800000000     0          
O        O      0.455300000000     0.597050000000     0.721500000000     0          
O        O      0.500000000000     0.985100000000     0.625000000000     0          
O        O      0.500000000000     0.504850000000     0.685400000000     0          
O        O      0.500000000000     0.500000000000     0.750000000000     0          
O        O      0.500000000000     0.633500000000     0.685000000000     0          
O        O      0.500000000000     0.638550000000     0.749750000000     0          
O        O      0.500000000000     0.875400000000     0.625000000000     0          
O        O      0.500000000000     0.855800000000     0.685600000000     0          
O        O      0.500000000000     0.654300000000     0.625000000000     0          
T        Si     0.429966666667     0.930300000000     0.685150000000     0          
T        Si     0.429933333333     0.569350000000     0.735400000000     0          
T        Si     0.500000000000     0.976450000000     0.663450000000     0          
T        Si     0.500000000000     0.522000000000     0.719750000000     0          
T        Si     0.500000000000     0.616600000000     0.719500000000     0          
T        Si     0.500000000000     0.884100000000     0.663450000000     0          
T        Si     0.500000000000     0.839150000000     0.720250000000     0          
T        Si     0.500000000000     0.662250000000     0.663650000000     0          
O        O      0.621933333333     0.569650000000     0.922500000000     0          
O        O      0.544700000000     0.597550000000     0.921500000000     0          
O        O      0.544700000000     0.541900000000     0.921500000000     0          
O        O      0.568966666667     0.569600000000     0.974850000000     0          
O        O      0.622000000000     0.930450000000     0.972800000000     0          
O        O      0.544733333333     0.958500000000     0.971800000000     0          
O        O      0.544700000000     0.902950000000     0.971500000000     0          
O        O      0.500000000000     0.514900000000     0.875000000000     0          
O        O      0.500000000000     0.995150000000     0.935400000000     0          
O        O      0.500000000000     0.500000000000     0.500000000000     0          
O        O      0.500000000000     0.866500000000     0.935000000000     0          
O        O      0.500000000000     0.861450000000     0.999750000000     0          
O        O      0.500000000000     0.624600000000     0.875000000000     0          
O        O      0.500000000000     0.644200000000     0.935600000000     0          
O        O      0.500000000000     0.845700000000     0.875000000000     0          
T        Si     0.570033333333     0.569700000000     0.935150000000     0          
T        Si     0.570066666667     0.930650000000     0.985400000000     0          
T        Si     0.500000000000     0.523550000000     0.913450000000     0          
T        Si     0.500000000000     0.978000000000     0.969750000000     0          
T        Si     0.500000000000     0.883400000000     0.969500000000     0          
T        Si     0.500000000000     0.615900000000     0.913450000000     0          
T        Si     0.500000000000     0.660850000000     0.970250000000     0          
T        Si     0.500000000000     0.837750000000     0.913650000000     0          
O        O      0.378066666667     0.569650000000     0.827500000000     0          
O        O      0.455300000000     0.597550000000     0.828500000000     0          
O        O      0.455300000000     0.541900000000     0.828500000000     0          
O        O      0.431033333333     0.569600000000     0.775150000000     0          
O        O      0.378000000000     0.930450000000     0.777200000000     0          
O        O      0.455266666667     0.958500000000     0.778200000000     0          
O        O      0.455300000000     0.902950000000     0.778500000000     0          
O        O      0.500000000000     0.995150000000     0.814600000000     0          
O        O      0.500000000000     0.866500000000     0.815000000000     0          
O        O      0.500000000000     0.861450000000     0.750250000000     0          
O        O      0.500000000000     0.644200000000     0.814400000000     0          
T        Si     0.429966666667     0.569700000000     0.814850000000     0          
T        Si     0.429933333333     0.930650000000     0.764600000000     0          
T        Si     0.500000000000     0.523550000000     0.836550000000     0          
T        Si     0.500000000000     0.978000000000     0.780250000000     0          
T        Si     0.500000000000     0.883400000000     0.780500000000     0          
T        Si     0.500000000000     0.615900000000     0.836550000000     0          
T        Si     0.500000000000     0.660850000000     0.779750000000     0          
T        Si     0.500000000000     0.837750000000     0.836350000000     0          
O        O      0.621933333333     0.930350000000     0.577500000000     0          
O        O      0.544700000000     0.902450000000     0.578500000000     0          
O        O      0.544700000000     0.958100000000     0.578500000000     0          
O        O      0.568966666667     0.930400000000     0.525150000000     0          
O        O      0.622000000000     0.569550000000     0.527200000000     0          
O        O      0.544733333333     0.541500000000     0.528200000000     0          
O        O      0.544700000000     0.597050000000     0.528500000000     0          
O        O      0.500000000000     0.504850000000     0.564600000000     0          
O        O      0.500000000000     0.633500000000     0.565000000000     0          
O        O      0.500000000000     0.638550000000     0.500250000000     0          
O        O      0.500000000000     0.855800000000     0.564400000000     0          
T        Si     0.570033333333     0.930300000000     0.564850000000     0          
T        Si     0.570066666667     0.569350000000     0.514600000000     0          
T        Si     0.500000000000     0.976450000000     0.586550000000     0          
T        Si     0.500000000000     0.522000000000     0.530250000000     0          
T        Si     0.500000000000     0.616600000000     0.530500000000     0          
T        Si     0.500000000000     0.884100000000     0.586550000000     0          
T        Si     0.500000000000     0.839150000000     0.529750000000     0          
T        Si     0.500000000000     0.662250000000     0.586350000000     0          
O        O      0.621933333333     0.569650000000     0.827500000000     0          
O        O      0.544700000000     0.597550000000     0.828500000000     0          
O        O      0.544700000000     0.541900000000     0.828500000000     0          
O        O      0.568966666667     0.569600000000     0.775150000000     0          
O        O      0.622000000000     0.930450000000     0.777200000000     0          
O        O      0.544733333333     0.958500000000     0.778200000000     0          
O        O      0.544700000000     0.902950000000     0.778500000000     0          
T        Si     0.570033333333     0.569700000000     0.814850000000     0          
T        Si     0.570066666667     0.930650000000     0.764600000000     0          
O        O      0.378066666667     0.930350000000     0.577500000000     0          
O        O      0.455300000000     0.902450000000     0.578500000000     0          
O        O      0.455300000000     0.958100000000     0.578500000000     0          
O        O      0.431033333333     0.930400000000     0.525150000000     0          
O        O      0.378000000000     0.569550000000     0.527200000000     0          
O        O      0.455266666667     0.541500000000     0.528200000000     0          
O        O      0.455300000000     0.597050000000     0.528500000000     0          
T        Si     0.429966666667     0.930300000000     0.564850000000     0          
T        Si     0.429933333333     0.569350000000     0.514600000000     0          
O        O      0.621933333333     0.930350000000     0.672500000000     0          
O        O      0.544700000000     0.902450000000     0.671500000000     0          
O        O      0.544700000000     0.958100000000     0.671500000000     0          
O        O      0.568966666667     0.930400000000     0.724850000000     0          
O        O      0.622000000000     0.569550000000     0.722800000000     0          
O        O      0.544733333333     0.541500000000     0.721800000000     0          
O        O      0.544700000000     0.597050000000     0.721500000000     0          
T        Si     0.570033333333     0.930300000000     0.685150000000     0          
T        Si     0.570066666667     0.569350000000     0.735400000000     0          
O        O      0.378066666667     0.569650000000     0.922500000000     0          
O        O      0.455300000000     0.597550000000     0.921500000000     0          
O        O      0.455300000000     0.541900000000     0.921500000000     0          
O        O      0.431033333333     0.569600000000     0.974850000000     0          
O        O      0.378000000000     0.930450000000     0.972800000000     0          
O        O      0.455266666667     0.958500000000     0.971800000000     0          
O        O      0.455300000000     0.902950000000     0.971500000000     0          
T        Si     0.429966666667     0.569700000000     0.935150000000     0          
T        Si     0.429933333333     0.930650000000     0.985400000000     0          
O        O      0.878066666667     0.180350000000     0.172500000000     0          
O        O      0.955300000000     0.152450000000     0.171500000000     0          
O        O      0.955300000000     0.208100000000     0.171500000000     0          
O        O      0.931033333333     0.180400000000     0.224850000000     0          
O        O      0.878000000000     0.319550000000     0.222800000000     0          
O        O      0.955266666667     0.291500000000     0.221800000000     0          
O        O      0.955300000000     0.347050000000     0.221500000000     0          
O        O      0.666666666667     0.235100000000     0.125000000000     0          
O        O      0.666666666667     0.254850000000     0.185400000000     0          
O        O      0.666666666667     0.250000000000     0.250000000000     0          
O        O      0.666666666667     0.383500000000     0.185000000000     0          
O        O      0.666666666667     0.388550000000     0.249750000000     0          
O        O      0.666666666667     0.125400000000     0.125000000000     0          
O        O      0.666666666667     0.105800000000     0.185600000000     0          
O        O      0.666666666667     0.404300000000     0.125000000000     0          
T        Si     0.929966666667     0.180300000000     0.185150000000     0          
T        Si     0.929933333333     0.319350000000     0.235400000000     0          
T        Si     0.666666666667     0.226450000000     0.163450000000     0          
T        Si     0.666666666667     0.272000000000     0.219750000000     0          
T        Si     0.666666666667     0.366600000000     0.219500000000     0          
T        Si     0.666666666667     0.134100000000     0.163450000000     0          
T        Si     0.666666666667     0.089150000000     0.220250000000     0          
T        Si     0.666666666667     0.412250000000     0.163650000000     0          
O        O      0.788600000000     0.319650000000     0.422500000000     0          
O        O      0.711366666667     0.347550000000     0.421500000000     0          
O        O      0.711366666667     0.291900000000     0.421500000000     0          
O        O      0.735633333333     0.319600000000     0.474850000000     0          
O        O      0.788666666667     0.180450000000     0.472800000000     0          
O        O      0.711400000000     0.208500000000     0.471800000000     0          
O        O      0.711366666667     0.152950000000     0.471500000000     0          
O        O      0.666666666667     0.264900000000     0.375000000000     0          
O        O      0.666666666667     0.245150000000     0.435400000000     0          
O        O      0.666666666667     0.250000000000     0.000000000000     0          
O        O      0.666666666667     0.116500000000     0.435000000000     0          
O        O      0.666666666667     0.111450000000     0.499750000000     0          
O        O      0.666666666667     0.374600000000     0.375000000000     0          
O        O      0.666666666667     0.394200000000     0.435600000000     0          
O        O      0.666666666667     0.095700000000     0.375000000000     0          
T        Si     0.736700000000     0.319700000000     0.435150000000     0          
T        Si     0.736733333333     0.180650000000     0.485400000000     0          
T        Si     0.666666666667     0.273550000000     0.413450000000     0          
T        Si     0.666666666667     0.228000000000     0.469750000000     0          
T        Si     0.666666666667     0.133400000000     0.469500000000     0          
T        Si     0.666666666667     0.365900000000     0.413450000000     0          
T        Si     0.666666666667     0.410850000000     0.470250000000     0          
T        Si     0.666666666667     0.087750000000     0.413650000000     0          
O        O      0.878066666667     0.319650000000     0.327500000000     0          
O        O      0.955300000000     0.347550000000     0.328500000000     0          
O        O      0.955300000000     0.291900000000     0.328500000000     0          
O        O      0.931033333333     0.319600000000     0.275150000000     0          
O        O      0.878000000000     0.180450000000     0.277200000000     0          
O        O      0.955266666667     0.208500000000     0.278200000000     0          
O        O      0.955300000000     0.152950000000     0.278500000000     0          
O        O      0.666666666667     0.245150000000     0.314600000000     0          
O        O      0.666666666667     0.116500000000     0.315000000000     0          
O        O      0.666666666667     0.111450000000     0.250250000000     0          
O        O      0.666666666667     0.394200000000     0.314400000000     0          
T        Si     0.929966666667     0.319700000000     0.314850000000     0          
T        Si     0.929933333333     0.180650000000     0.264600000000     0          
T        Si     0.666666666667     0.273550000000     0.336550000000     0          
T        Si     0.666666666667     0.228000000000     0.280250000000     0          
T        Si     0.666666666667     0.133400000000     0.280500000000     0          
T        Si     0.666666666667     0.365900000000     0.336550000000     0          
T        Si     0.666666666667     0.410850000000     0.279750000000     0          
T        Si     0.666666666667     0.087750000000     0.336350000000     0          
O        O      0.788600000000     0.180350000000     0.077500000000     0          
O        O      0.711366666667     0.152450000000     0.078500000000     0          
O        O      0.711366666667     0.208100000000     0.078500000000     0          
O        O      0.735633333333     0.180400000000     0.025150000000     0          
O        O      0.788666666667     0.319550000000     0.027200000000     0          
O        O      0.711400000000     0.291500000000     0.028200000000     0          
O        O      0.711366666667     0.347050000000     0.028500000000     0          
O        O      0.666666666667     0.254850000000     0.064600000000     0          
O        O      0.666666666667     0.383500000000     0.065000000000     0          
O        O      0.666666666667     0.388550000000     0.000250000000     0          
O        O      0.666666666667     0.105800000000     0.064400000000     0          
T        Si     0.736700000000     0.180300000000     0.064850000000     0          
T        Si     0.736733333333     0.319350000000     0.014600000000     0          
T        Si     0.666666666667     0.226450000000     0.086550000000     0          
T        Si     0.666666666667     0.272000000000     0.030250000000     0          
T        Si     0.666666666667     0.366600000000     0.030500000000     0          
T        Si     0.666666666667     0.134100000000     0.086550000000     0          
T        Si     0.666666666667     0.089150000000     0.029750000000     0          
T        Si     0.666666666667     0.412250000000     0.086350000000     0          
O        O      0.788600000000     0.319650000000     0.327500000000     0          
O        O      0.711366666667     0.347550000000     0.328500000000     0          
O        O      0.711366666667     0.291900000000     0.328500000000     0          
O        O      0.735633333333     0.319600000000     0.275150000000     0          
O        O      0.788666666667     0.180450000000     0.277200000000     0          
O        O      0.711400000000     0.208500000000     0.278200000000     0          
O        O      0.711366666667     0.152950000000     0.278500000000     0          
T        Si     0.736700000000     0.319700000000     0.314850000000     0          
T        Si     0.736733333333     0.180650000000     0.264600000000     0          
O        O      0.878066666667     0.180350000000     0.077500000000     0          
O        O      0.955300000000     0.152450000000     0.078500000000     0          
O        O      0.955300000000     0.208100000000     0.078500000000     0          
O        O      0.931033333333     0.180400000000     0.025150000000     0          
O        O      0.878000000000     0.319550000000     0.027200000000     0          
O        O      0.955266666667     0.291500000000     0.028200000000     0          
O        O      0.955300000000     0.347050000000     0.028500000000     0          
T        Si     0.929966666667     0.180300000000     0.064850000000     0          
T        Si     0.929933333333     0.319350000000     0.014600000000     0          
O        O      0.788600000000     0.180350000000     0.172500000000     0          
O        O      0.711366666667     0.152450000000     0.171500000000     0          
O        O      0.711366666667     0.208100000000     0.171500000000     0          
O        O      0.735633333333     0.180400000000     0.224850000000     0          
O        O      0.788666666667     0.319550000000     0.222800000000     0          
O        O      0.711400000000     0.291500000000     0.221800000000     0          
O        O      0.711366666667     0.347050000000     0.221500000000     0          
T        Si     0.736700000000     0.180300000000     0.185150000000     0          
T        Si     0.736733333333     0.319350000000     0.235400000000     0          
O        O      0.878066666667     0.319650000000     0.422500000000     0          
O        O      0.955300000000     0.347550000000     0.421500000000     0          
O        O      0.955300000000     0.291900000000     0.421500000000     0          
O        O      0.931033333333     0.319600000000     0.474850000000     0          
O        O      0.878000000000     0.180450000000     0.472800000000     0          
O        O      0.955266666667     0.208500000000     0.471800000000     0          
O        O      0.955300000000     0.152950000000     0.471500000000     0          
T        Si     0.929966666667     0.319700000000     0.435150000000     0          
T        Si     0.929933333333     0.180650000000     0.485400000000     0          
O        O      0.711400000000     0.430350000000     0.172500000000     0          
O        O      0.788633333333     0.402450000000     0.171500000000     0          
O        O      0.788633333333     0.458100000000     0.171500000000     0          
O        O      0.764366666667     0.430400000000     0.224850000000     0          
O        O      0.711333333333     0.069550000000     0.222800000000     0          
O        O      0.788600000000     0.041500000000     0.221800000000     0          
O        O      0.788633333333     0.097050000000     0.221500000000     0          
O        O      0.833333333333     0.485100000000     0.125000000000     0          
O        O      0.833333333333     0.004850000000     0.185400000000     0          
O        O      0.833333333333     0.000000000000     0.250000000000     0          
O        O      0.833333333333     0.133500000000     0.185000000000     0          
O        O      0.833333333333     0.138550000000     0.249750000000     0          
O        O      0.833333333333     0.375400000000     0.125000000000     0          
O        O      0.833333333333     0.355800000000     0.185600000000     0          
O        O      0.833333333333     0.154300000000     0.125000000000     0          
T        Si     0.763300000000     0.430300000000     0.185150000000     0          
T        Si     0.763266666667     0.069350000000     0.235400000000     0          
T        Si     0.833333333333     0.476450000000     0.163450000000     0          
T        Si     0.833333333333     0.022000000000     0.219750000000     0          
T        Si     0.833333333333     0.116600000000     0.219500000000     0          
T        Si     0.833333333333     0.384100000000     0.163450000000     0          
T        Si     0.833333333333     0.339150000000     0.220250000000     0          
T        Si     0.833333333333     0.162250000000     0.163650000000     0          
O        O      0.955266666667     0.069650000000     0.422500000000     0          
O        O      0.878033333333     0.097550000000     0.421500000000     0          
O        O      0.878033333333     0.041900000000     0.421500000000     0          
O        O      0.902300000000     0.069600000000     0.474850000000     0          
O        O      0.955333333333     0.430450000000     0.472800000000     0          
O        O      0.878066666667     0.458500000000     0.471800000000     0          
O        O      0.878033333333     0.402950000000     0.471500000000     0          
O        O      0.833333333333     0.014900000000     0.375000000000     0          
O        O      0.833333333333     0.495150000000     0.435400000000     0          
O        O      0.833333333333     0.000000000000     0.000000000000     0          
O        O      0.833333333333     0.366500000000     0.435000000000     0          
O        O      0.833333333333     0.361450000000     0.499750000000     0          
O        O      0.833333333333     0.124600000000     0.375000000000     0          
O        O      0.833333333333     0.144200000000     0.435600000000     0          
O        O      0.833333333333     0.345700000000     0.375000000000     0          
T        Si     0.903366666667     0.069700000000     0.435150000000     0          
T        Si     0.903400000000     0.430650000000     0.485400000000     0          
T        Si     0.833333333333     0.023550000000     0.413450000000     0          
T        Si     0.833333333333     0.478000000000     0.469750000000     0          
T        Si     0.833333333333     0.383400000000     0.469500000000     0          
T        Si     0.833333333333     0.115900000000     0.413450000000     0          
T        Si     0.833333333333     0.160850000000     0.470250000000     0          
T        Si     0.833333333333     0.337750000000     0.413650000000     0          
O        O      0.711400000000     0.069650000000     0.327500000000     0          
O        O      0.788633333333     0.097550000000     0.328500000000     0          
O        O      0.788633333333     0.041900000000     0.328500000000     0          
O        O      0.764366666667     0.069600000000     0.275150000000     0          
O        O      0.711333333333     0.430450000000     0.277200000000     0          
O        O      0.788600000000     0.458500000000     0.278200000000     0          
O        O      0.788633333333     0.402950000000     0.278500000000     0          
O        O      0.833333333333     0.495150000000     0.314600000000     0          
O        O      0.833333333333     0.366500000000     0.315000000000     0          
O        O      0.833333333333     0.361450000000     0.250250000000     0          
O        O      0.833333333333     0.144200000000     0.314400000000     0          
T        Si     0.763300000000     0.069700000000     0.314850000000     0          
T        Si     0.763266666667     0.430650000000     0.264600000000     0          
T        Si     0.833333333333     0.023550000000     0.336550000000     0          
T        Si     0.833333333333     0.478000000000     0.280250000000     0          
T        Si     0.833333333333     0.383400000000     0.280500000000     0          
T        Si     0.833333333333     0.115900000000     0.336550000000     0          
T        Si     0.833333333333     0.160850000000     0.279750000000     0          
T        Si     0.833333333333     0.337750000000     0.336350000000     0          
O        O      0.955266666667     0.430350000000     0.077500000000     0          
O        O      0.878033333333     0.402450000000     0.078500000000     0          
O        O      0.878033333333     0.458100000000     0.078500000000     0          
O        O      0.902300000000     0.430400000000     0.025150000000     0          
O        O      0.955333333333     0.069550000000     0.027200000000     0          
O        O      0.878066666667     0.041500000000     0.028200000000     0          
O        O      0.878033333333     0.097050000000     0.028500000000     0          
O        O      0.833333333333     0.004850000000     0.064600000000     0          
O        O      0.833333333333     0.133500000000     0.065000000000     0          
O        O      0.833333333333     0.138550000000     0.000250000000     0          
O        O      0.833333333333     0.355800000000     0.064400000000     0          
T        Si     0.903366666667     0.430300000000     0.064850000000     0          
T        Si     0.903400000000     0.069350000000     0.014600000000     0          
T        Si     0.833333333333     0.476450000000     0.086550000000     0          
T        Si     0.833333333333     0.022000000000     0.030250000000     0          
T        Si     0.833333333333     0.116600000000     0.030500000000     0          
T        Si     0.833333333333     0.384100000000     0.086550000000     0          
T        Si     0.833333333333     0.339150000000     0.029750000000     0          
T        Si     0.833333333333     0.162250000000     0.086350000000     0          
O        O      0.955266666667     0.069650000000     0.327500000000     0          
O        O      0.878033333333     0.097550000000     0.328500000000     0          
O        O      0.878033333333     0.041900000000     0.328500000000     0          
O        O      0.902300000000     0.069600000000     0.275150000000     0          
O        O      0.955333333333     0.430450000000     0.277200000000     0          
O        O      0.878066666667     0.458500000000     0.278200000000     0          
O        O      0.878033333333     0.402950000000     0.278500000000     0          
T        Si     0.903366666667     0.069700000000     0.314850000000     0          
T        Si     0.903400000000     0.430650000000     0.264600000000     0          
O        O      0.711400000000     0.430350000000     0.077500000000     0          
O        O      0.788633333333     0.402450000000     0.078500000000     0          
O        O      0.788633333333     0.458100000000     0.078500000000     0          
O        O      0.764366666667     0.430400000000     0.025150000000     0          
O        O      0.711333333333     0.069550000000     0.027200000000     0          
O        O      0.788600000000     0.041500000000     0.028200000000     0          
O        O      0.788633333333     0.097050000000     0.028500000000     0          
T        Si     0.763300000000     0.430300000000     0.064850000000     0          
T        Si     0.763266666667     0.069350000000     0.014600000000     0          
O        O      0.955266666667     0.430350000000     0.172500000000     0          
O        O      0.878033333333     0.402450000000     0.171500000000     0          
O        O      0.878033333333     0.458100000000     0.171500000000     0          
O        O      0.902300000000     0.430400000000     0.224850000000     0          
O        O      0.955333333333     0.069550000000     0.222800000000     0          
O        O      0.878066666667     0.041500000000     0.221800000000     0          
O        O      0.878033333333     0.097050000000     0.221500000000     0          
T        Si     0.903366666667     0.430300000000     0.185150000000     0          
T        Si     0.903400000000     0.069350000000     0.235400000000     0          
O        O      0.711400000000     0.069650000000     0.422500000000     0          
O        O      0.788633333333     0.097550000000     0.421500000000     0          
O        O      0.788633333333     0.041900000000     0.421500000000     0          
O        O      0.764366666667     0.069600000000     0.474850000000     0          
O        O      0.711333333333     0.430450000000     0.472800000000     0          
O        O      0.788600000000     0.458500000000     0.471800000000     0          
O        O      0.788633333333     0.402950000000     0.471500000000     0          
T        Si     0.763300000000     0.069700000000     0.435150000000     0          
T        Si     0.763266666667     0.430650000000     0.485400000000     0          
O        O      0.878066666667     0.180350000000     0.672500000000     0          
O        O      0.955300000000     0.152450000000     0.671500000000     0          
O        O      0.955300000000     0.208100000000     0.671500000000     0          
O        O      0.931033333333     0.180400000000     0.724850000000     0          
O        O      0.878000000000     0.319550000000     0.722800000000     0          
O        O      0.955266666667     0.291500000000     0.721800000000     0          
O        O      0.955300000000     0.347050000000     0.721500000000     0          
O        O      0.666666666667     0.235100000000     0.625000000000     0          
O        O      0.666666666667     0.254850000000     0.685400000000     0          
O        O      0.666666666667     0.250000000000     0.750000000000     0          
O        O      0.666666666667     0.383500000000     0.685000000000     0          
O        O      0.666666666667     0.388550000000     0.749750000000     0          
O        O      0.666666666667     0.125400000000     0.625000000000     0          
O        O      0.666666666667     0.105800000000     0.685600000000     0          
O        O      0.666666666667     0.404300000000     0.625000000000     0          
T        Si     0.929966666667     0.180300000000     0.685150000000     0          
T        Si     0.929933333333     0.319350000000     0.735400000000     0          
T        Si     0.666666666667     0.226450000000     0.663450000000     0          
T        Si     0.666666666667     0.272000000000     0.719750000000     0          
T        Si     0.666666666667     0.366600000000     0.719500000000     0          
T        Si     0.666666666667     0.134100000000     0.663450000000     0          
T        Si     0.666666666667     0.089150000000     0.720250000000     0          
T        Si     0.666666666667     0.412250000000     0.663650000000     0          
O        O      0.788600000000     0.319650000000     0.922500000000     0          
O        O      0.711366666667     0.347550000000     0.921500000000     0          
O        O      0.711366666667     0.291900000000     0.921500000000     0          
O        O      0.735633333333     0.319600000000     0.974850000000     0          
O        O      0.788666666667     0.180450000000     0.972800000000     0          
O        O      0.711400000000     0.208500000000     0.971800000000     0          
O        O      0.711366666667     0.152950000000     0.971500000000     0          
O        O      0.666666666667     0.264900000000     0.875000000000     0          
O        O      0.666666666667     0.245150000000     0.935400000000     0          
O        O      0.666666666667     0.250000000000     0.500000000000     0          
O        O      0.666666666667     0.116500000000     0.935000000000     0          
O        O      0.666666666667     0.111450000000     0.999750000000     0          
O        O      0.666666666667     0.374600000000     0.875000000000     0          
O        O      0.666666666667     0.394200000000     0.935600000000     0          
O        O      0.666666666667     0.095700000000     0.875000000000     0          
T        Si     0.736700000000     0.319700000000     0.935150000000     0          
T        Si     0.736733333333     0.180650000000     0.985400000000     0          
T        Si     0.666666666667     0.273550000000     0.913450000000     0          
T        Si     0.666666666667     0.228000000000     0.969750000000     0          
T        Si     0.666666666667     0.133400000000     0.969500000000     0          
T        Si     0.666666666667     0.365900000000     0.913450000000     0          
T        Si     0.666666666667     0.410850000000     0.970250000000     0          
T        Si     0.666666666667     0.087750000000     0.913650000000     0          
O        O      0.878066666667     0.319650000000     0.827500000000     0          
O        O      0.955300000000     0.347550000000     0.828500000000     0          
O        O      0.955300000000     0.291900000000     0.828500000000     0          
O        O      0.931033333333     0.319600000000     0.775150000000     0          
O        O      0.878000000000     0.180450000000     0.777200000000     0          
O        O      0.955266666667     0.208500000000     0.778200000000     0          
O        O      0.955300000000     0.152950000000     0.778500000000     0          
O        O      0.666666666667     0.245150000000     0.814600000000     0          
O        O      0.666666666667     0.116500000000     0.815000000000     0          
O        O      0.666666666667     0.111450000000     0.750250000000     0          
O        O      0.666666666667     0.394200000000     0.814400000000     0          
T        Si     0.929966666667     0.319700000000     0.814850000000     0          
T        Si     0.929933333333     0.180650000000     0.764600000000     0          
T        Si     0.666666666667     0.273550000000     0.836550000000     0          
T        Si     0.666666666667     0.228000000000     0.780250000000     0          
T        Si     0.666666666667     0.133400000000     0.780500000000     0          
T        Si     0.666666666667     0.365900000000     0.836550000000     0          
T        Si     0.666666666667     0.410850000000     0.779750000000     0          
T        Si     0.666666666667     0.087750000000     0.836350000000     0          
O        O      0.788600000000     0.180350000000     0.577500000000     0          
O        O      0.711366666667     0.152450000000     0.578500000000     0          
O        O      0.711366666667     0.208100000000     0.578500000000     0          
O        O      0.735633333333     0.180400000000     0.525150000000     0          
O        O      0.788666666667     0.319550000000     0.527200000000     0          
O        O      0.711400000000     0.291500000000     0.528200000000     0          
O        O      0.711366666667     0.347050000000     0.528500000000     0          
O        O      0.666666666667     0.254850000000     0.564600000000     0          
O        O      0.666666666667     0.383500000000     0.565000000000     0          
O        O      0.666666666667     0.388550000000     0.500250000000     0          
O        O      0.666666666667     0.105800000000     0.564400000000     0          
T        Si     0.736700000000     0.180300000000     0.564850000000     0          
T        Si     0.736733333333     0.319350000000     0.514600000000     0          
T        Si     0.666666666667     0.226450000000     0.586550000000     0          
T        Si     0.666666666667     0.272000000000     0.530250000000     0          
T        Si     0.666666666667     0.366600000000     0.530500000000     0          
T        Si     0.666666666667     0.134100000000     0.586550000000     0          
T        Si     0.666666666667     0.089150000000     0.529750000000     0          
T        Si     0.666666666667     0.412250000000     0.586350000000     0          
O        O      0.788600000000     0.319650000000     0.827500000000     0          
O        O      0.711366666667     0.347550000000     0.828500000000     0          
O        O      0.711366666667     0.291900000000     0.828500000000     0          
O        O      0.735633333333     0.319600000000     0.775150000000     0          
O        O      0.788666666667     0.180450000000     0.777200000000     0          
O        O      0.711400000000     0.208500000000     0.778200000000     0          
O        O      0.711366666667     0.152950000000     0.778500000000     0          
T        Si     0.736700000000     0.319700000000     0.814850000000     0          
T        Si     0.736733333333     0.180650000000     0.764600000000     0          
O        O      0.878066666667     0.180350000000     0.577500000000     0          
O        O      0.955300000000     0.152450000000     0.578500000000     0          
O        O      0.955300000000     0.208100000000     0.578500000000     0          
O        O      0.931033333333     0.180400000000     0.525150000000     0          
O        O      0.878000000000     0.319550000000     0.527200000000     0          
O        O      0.955266666667     0.291500000000     0.528200000000     0          
O        O      0.955300000000     0.347050000000     0.528500000000     0          
T        Si     0.929966666667     0.180300000000     0.564850000000     0          
T        Si     0.929933333333     0.319350000000     0.514600000000     0          
O        O      0.788600000000     0.180350000000     0.672500000000     0          
O        O      0.711366666667     0.152450000000     0.671500000000     0          
O        O      0.711366666667     0.208100000000     0.671500000000     0          
O        O      0.735633333333     0.180400000000     0.724850000000     0          
O        O      0.788666666667     0.319550000000     0.722800000000     0          
O        O      0.711400000000     0.291500000000     0.721800000000     0          
O        O      0.711366666667     0.347050000000     0.721500000000     0          
T        Si     0.736700000000     0.180300000000     0.685150000000     0          
T        Si     0.736733333333     0.319350000000     0.735400000000     0          
O        O      0.878066666667     0.319650000000     0.922500000000     0          
O        O      0.955300000000     0.347550000000     0.921500000000     0          
O        O      0.955300000000     0.291900000000     0.921500000000     0          
O        O      0.931033333333     0.319600000000     0.974850000000     0          
O        O      0.878000000000     0.180450000000     0.972800000000     0          
O        O      0.955266666667     0.208500000000     0.971800000000     0          
O        O      0.955300000000     0.152950000000     0.971500000000     0          
T        Si     0.929966666667     0.319700000000     0.935150000000     0          
T        Si     0.929933333333     0.180650000000     0.985400000000     0          
O        O      0.711400000000     0.430350000000     0.672500000000     0          
O        O      0.788633333333     0.402450000000     0.671500000000     0          
O        O      0.788633333333     0.458100000000     0.671500000000     0          
O        O      0.764366666667     0.430400000000     0.724850000000     0          
O        O      0.711333333333     0.069550000000     0.722800000000     0          
O        O      0.788600000000     0.041500000000     0.721800000000     0          
O        O      0.788633333333     0.097050000000     0.721500000000     0          
O        O      0.833333333333     0.485100000000     0.625000000000     0          
O        O      0.833333333333     0.004850000000     0.685400000000     0          
O        O      0.833333333333     0.000000000000     0.750000000000     0          
O        O      0.833333333333     0.133500000000     0.685000000000     0          
O        O      0.833333333333     0.138550000000     0.749750000000     0          
O        O      0.833333333333     0.375400000000     0.625000000000     0          
O        O      0.833333333333     0.355800000000     0.685600000000     0          
O        O      0.833333333333     0.154300000000     0.625000000000     0          
T        Si     0.763300000000     0.430300000000     0.685150000000     0          
T        Si     0.763266666667     0.069350000000     0.735400000000     0          
T        Si     0.833333333333     0.476450000000     0.663450000000     0          
T        Si     0.833333333333     0.022000000000     0.719750000000     0          
T        Si     0.833333333333     0.116600000000     0.719500000000     0          
T        Si     0.833333333333     0.384100000000     0.663450000000     0          
T        Si     0.833333333333     0.339150000000     0.720250000000     0          
T        Si     0.833333333333     0.162250000000     0.663650000000     0          
O        O      0.955266666667     0.069650000000     0.922500000000     0          
O        O      0.878033333333     0.097550000000     0.921500000000     0          
O        O      0.878033333333     0.041900000000     0.921500000000     0          
O        O      0.902300000000     0.069600000000     0.974850000000     0          
O        O      0.955333333333     0.430450000000     0.972800000000     0          
O        O      0.878066666667     0.458500000000     0.971800000000     0          
O        O      0.878033333333     0.402950000000     0.971500000000     0          
O        O      0.833333333333     0.014900000000     0.875000000000     0          
O        O      0.833333333333     0.495150000000     0.935400000000     0          
O        O      0.833333333333     0.000000000000     0.500000000000     0          
O        O      0.833333333333     0.366500000000     0.935000000000     0          
O        O      0.833333333333     0.361450000000     0.999750000000     0          
O        O      0.833333333333     0.124600000000     0.875000000000     0          
O        O      0.833333333333     0.144200000000     0.935600000000     0          
O        O      0.833333333333     0.345700000000     0.875000000000     0          
T        Si     0.903366666667     0.069700000000     0.935150000000     0          
T        Si     0.903400000000     0.430650000000     0.985400000000     0          
T        Si     0.833333333333     0.023550000000     0.913450000000     0          
T        Si     0.833333333333     0.478000000000     0.969750000000     0          
T        Si     0.833333333333     0.383400000000     0.969500000000     0          
T        Si     0.833333333333     0.115900000000     0.913450000000     0          
T        Si     0.833333333333     0.160850000000     0.970250000000     0          
T        Si     0.833333333333     0.337750000000     0.913650000000     0          
O        O      0.711400000000     0.069650000000     0.827500000000     0          
O        O      0.788633333333     0.097550000000     0.828500000000     0          
O        O      0.788633333333     0.041900000000     0.828500000000     0          
O        O      0.764366666667     0.069600000000     0.775150000000     0          
O        O      0.711333333333     0.430450000000     0.777200000000     0          
O        O      0.788600000000     0.458500000000     0.778200000000     0          
O        O      0.788633333333     0.402950000000     0.778500000000     0          
O        O      0.833333333333     0.495150000000     0.814600000000     0          
O        O      0.833333333333     0.366500000000     0.815000000000     0          
O        O      0.833333333333     0.361450000000     0.750250000000     0          
O        O      0.833333333333     0.144200000000     0.814400000000     0          
T        Si     0.763300000000     0.069700000000     0.814850000000     0          
T        Si     0.763266666667     0.430650000000     0.764600000000     0          
T        Si     0.833333333333     0.023550000000     0.836550000000     0          
T        Si     0.833333333333     0.478000000000     0.780250000000     0          
T        Si     0.833333333333     0.383400000000     0.780500000000     0          
T        Si     0.833333333333     0.115900000000     0.836550000000     0          
T        Si     0.833333333333     0.160850000000     0.779750000000     0          
T        Si     0.833333333333     0.337750000000     0.836350000000     0          
O        O      0.955266666667     0.430350000000     0.577500000000     0          
O        O      0.878033333333     0.402450000000     0.578500000000     0          
O        O      0.878033333333     0.458100000000     0.578500000000     0          
O        O      0.902300000000     0.430400000000     0.525150000000     0          
O        O      0.955333333333     0.069550000000     0.527200000000     0          
O        O      0.878066666667     0.041500000000     0.528200000000     0          
O        O      0.878033333333     0.097050000000     0.528500000000     0          
O        O      0.833333333333     0.004850000000     0.564600000000     0          
O        O      0.833333333333     0.133500000000     0.565000000000     0          
O        O      0.833333333333     0.138550000000     0.500250000000     0          
O        O      0.833333333333     0.355800000000     0.564400000000     0          
T        Si     0.903366666667     0.430300000000     0.564850000000     0          
T        Si     0.903400000000     0.069350000000     0.514600000000     0          
T        Si     0.833333333333     0.476450000000     0.586550000000     0          
T        Si     0.833333333333     0.022000000000     0.530250000000     0          
T        Si     0.833333333333     0.116600000000     0.530500000000     0          
T        Si     0.833333333333     0.384100000000     0.586550000000     0          
T        Si     0.833333333333     0.339150000000     0.529750000000     0          
T        Si     0.833333333333     0.162250000000     0.586350000000     0          
O        O      0.955266666667     0.069650000000     0.827500000000     0          
O        O      0.878033333333     0.097550000000     0.828500000000     0          
O        O      0.878033333333     0.041900000000     0.828500000000     0          
O        O      0.902300000000     0.069600000000     0.775150000000     0          
O        O      0.955333333333     0.430450000000     0.777200000000     0          
O        O      0.878066666667     0.458500000000     0.778200000000     0          
O        O      0.878033333333     0.402950000000     0.778500000000     0          
T        Si     0.903366666667     0.069700000000     0.814850000000     0          
T        Si     0.903400000000     0.430650000000     0.764600000000     0          
O        O      0.711400000000     0.430350000000     0.577500000000     0          
O        O      0.788633333333     0.402450000000     0.578500000000     0          
O        O      0.788633333333     0.458100000000     0.578500000000     0          
O        O      0.764366666667     0.430400000000     0.525150000000     0          
O        O      0.711333333333     0.069550000000     0.527200000000     0          
O        O      0.788600000000     0.041500000000     0.528200000000     0          
O        O      0.788633333333     0.097050000000     0.528500000000     0          
T        Si     0.763300000000     0.430300000000     0.564850000000     0          
T        Si     0.763266666667     0.069350000000     0.514600000000     0          
O        O      0.955266666667     0.430350000000     0.672500000000     0          
O        O      0.878033333333     0.402450000000     0.671500000000     0          
O        O      0.878033333333     0.458100000000     0.671500000000     0          
O        O      0.902300000000     0.430400000000     0.724850000000     0          
O        O      0.955333333333     0.069550000000     0.722800000000     0          
O        O      0.878066666667     0.041500000000     0.721800000000     0          
O        O      0.878033333333     0.097050000000     0.721500000000     0          
T        Si     0.903366666667     0.430300000000     0.685150000000     0          
T        Si     0.903400000000     0.069350000000     0.735400000000     0          
O        O      0.711400000000     0.069650000000     0.922500000000     0          
O        O      0.788633333333     0.097550000000     0.921500000000     0          
O        O      0.788633333333     0.041900000000     0.921500000000     0          
O        O      0.764366666667     0.069600000000     0.974850000000     0          
O        O      0.711333333333     0.430450000000     0.972800000000     0          
O        O      0.788600000000     0.458500000000     0.971800000000     0          
O        O      0.788633333333     0.402950000000     0.971500000000     0          
T        Si     0.763300000000     0.069700000000     0.935150000000     0          
T        Si     0.763266666667     0.430650000000     0.985400000000     0          
O        O      0.878066666667     0.680350000000     0.172500000000     0          
O        O      0.955300000000     0.652450000000     0.171500000000     0          
O        O      0.955300000000     0.708100000000     0.171500000000     0          
O        O      0.931033333333     0.680400000000     0.224850000000     0          
O        O      0.878000000000     0.819550000000     0.222800000000     0          
O        O      0.955266666667     0.791500000000     0.221800000000     0          
O        O      0.955300000000     0.847050000000     0.221500000000     0          
O        O      0.666666666667     0.735100000000     0.125000000000     0          
O        O      0.666666666667     0.754850000000     0.185400000000     0          
O        O      0.666666666667     0.750000000000     0.250000000000     0          
O        O      0.666666666667     0.883500000000     0.185000000000     0          
O        O      0.666666666667     0.888550000000     0.249750000000     0          
O        O      0.666666666667     0.625400000000     0.125000000000     0          
O        O      0.666666666667     0.605800000000     0.185600000000     0          
O        O      0.666666666667     0.904300000000     0.125000000000     0          
T        Si     0.929966666667     0.680300000000     0.185150000000     0          
T        Si     0.929933333333     0.819350000000     0.235400000000     0          
T        Si     0.666666666667     0.726450000000     0.163450000000     0          
T        Si     0.666666666667     0.772000000000     0.219750000000     0          
T        Si     0.666666666667     0.866600000000     0.219500000000     0          
T        Si     0.666666666667     0.634100000000     0.163450000000     0          
T        Si     0.666666666667     0.589150000000     0.220250000000     0          
T        Si     0.666666666667     0.912250000000     0.163650000000     0          
O        O      0.788600000000     0.819650000000     0.422500000000     0          
O        O      0.711366666667     0.847550000000     0.421500000000     0          
O        O      0.711366666667     0.791900000000     0.421500000000     0          
O        O      0.735633333333     0.819600000000     0.474850000000     0          
O        O      0.788666666667     0.680450000000     0.472800000000     0          
O        O      0.711400000000     0.708500000000     0.471800000000     0          
O        O      0.711366666667     0.652950000000     0.471500000000     0          
O        O      0.666666666667     0.764900000000     0.375000000000     0          
O        O      0.666666666667     0.745150000000     0.435400000000     0          
O        O      0.666666666667     0.750000000000     0.000000000000     0          
O        O      0.666666666667     0.616500000000     0.435000000000     0          
O        O      0.666666666667     0.611450000000     0.499750000000     0          
O        O      0.666666666667     0.874600000000     0.375000000000     0          
O        O      0.666666666667     0.894200000000     0.435600000000     0          
O        O      0.666666666667     0.595700000000     0.375000000000     0          
T        Si     0.736700000000     0.819700000000     0.435150000000     0          
T        Si     0.736733333333     0.680650000000     0.485400000000     0          
T        Si     0.666666666667     0.773550000000     0.413450000000     0          
T        Si     0.666666666667     0.728000000000     0.469750000000     0          
T        Si     0.666666666667     0.633400000000     0.469500000000     0          
T        Si     0.666666666667     0.865900000000     0.413450000000     0          
T        Si     0.666666666667     0.910850000000     0.470250000000     0          
T        Si     0.666666666667     0.587750000000     0.413650000000     0          
O        O      0.878066666667     0.819650000000     0.327500000000     0          
O        O      0.955300000000     0.847550000000     0.328500000000     0          
O        O      0.955300000000     0.791900000000     0.328500000000     0          
O        O      0.931033333333     0.819600000000     0.275150000000     0          
O        O      0.878000000000     0.680450000000     0.277200000000     0          
O        O      0.955266666667     0.708500000000     0.278200000000     0          
O        O      0.955300000000     0.652950000000     0.278500000000     0          
O        O      0.666666666667     0.745150000000     0.314600000000     0          
O        O      0.666666666667     0.616500000000     0.315000000000     0          
O        O      0.666666666667     0.611450000000     0.250250000000     0          
O        O      0.666666666667     0.894200000000     0.314400000000     0          
T        Si     0.929966666667     0.819700000000     0.314850000000     0          
T        Si     0.929933333333     0.680650000000     0.264600000000     0          
T        Si     0.666666666667     0.773550000000     0.336550000000     0          
T        Si     0.666666666667     0.728000000000     0.280250000000     0          
T        Si     0.666666666667     0.633400000000     0.280500000000     0          
T        Si     0.666666666667     0.865900000000     0.336550000000     0          
T        Si     0.666666666667     0.910850000000     0.279750000000     0          
T        Si     0.666666666667     0.587750000000     0.336350000000     0          
O        O      0.788600000000     0.680350000000     0.077500000000     0          
O        O      0.711366666667     0.652450000000     0.078500000000     0          
O        O      0.711366666667     0.708100000000     0.078500000000     0          
O        O      0.735633333333     0.680400000000     0.025150000000     0          
O        O      0.788666666667     0.819550000000     0.027200000000     0          
O        O      0.711400000000     0.791500000000     0.028200000000     0          
O        O      0.711366666667     0.847050000000     0.028500000000     0          
O        O      0.666666666667     0.754850000000     0.064600000000     0          
O        O      0.666666666667     0.883500000000     0.065000000000     0          
O        O      0.666666666667     0.888550000000     0.000250000000     0          
O        O      0.666666666667     0.605800000000     0.064400000000     0          
T        Si     0.736700000000     0.680300000000     0.064850000000     0          
T        Si     0.736733333333     0.819350000000     0.014600000000     0          
T        Si     0.666666666667     0.726450000000     0.086550000000     0          
T        Si     0.666666666667     0.772000000000     0.030250000000     0          
T        Si     0.666666666667     0.866600000000     0.030500000000     0          
T        Si     0.666666666667     0.634100000000     0.086550000000     0          
T        Si     0.666666666667     0.589150000000     0.029750000000     0          
T        Si     0.666666666667     0.912250000000     0.086350000000     0          
O        O      0.788600000000     0.819650000000     0.327500000000     0          
O        O      0.711366666667     0.847550000000     0.328500000000     0          
O        O      0.711366666667     0.791900000000     0.328500000000     0          
O        O      0.735633333333     0.819600000000     0.275150000000     0          
O        O      0.788666666667     0.680450000000     0.277200000000     0          
O        O      0.711400000000     0.708500000000     0.278200000000     0          
O        O      0.711366666667     0.652950000000     0.278500000000     0          
T        Si     0.736700000000     0.819700000000     0.314850000000     0          
T        Si     0.736733333333     0.680650000000     0.264600000000     0          
O        O      0.878066666667     0.680350000000     0.077500000000     0          
O        O      0.955300000000     0.652450000000     0.078500000000     0          
O        O      0.955300000000     0.708100000000     0.078500000000     0          
O        O      0.931033333333     0.680400000000     0.025150000000     0          
O        O      0.878000000000     0.819550000000     0.027200000000     0          
O        O      0.955266666667     0.791500000000     0.028200000000     0          
O        O      0.955300000000     0.847050000000     0.028500000000     0          
T        Si     0.929966666667     0.680300000000     0.064850000000     0          
T        Si     0.929933333333     0.819350000000     0.014600000000     0          
O        O      0.788600000000     0.680350000000     0.172500000000     0          
O        O      0.711366666667     0.652450000000     0.171500000000     0          
O        O      0.711366666667     0.708100000000     0.171500000000     0          
O        O      0.735633333333     0.680400000000     0.224850000000     0          
O        O      0.788666666667     0.819550000000     0.222800000000     0          
O        O      0.711400000000     0.791500000000     0.221800000000     0          
O        O      0.711366666667     0.847050000000     0.221500000000     0          
T        Si     0.736700000000     0.680300000000     0.185150000000     0          
T        Si     0.736733333333     0.819350000000     0.235400000000     0          
O        O      0.878066666667     0.819650000000     0.422500000000     0          
O        O      0.955300000000     0.847550000000     0.421500000000     0          
O        O      0.955300000000     0.791900000000     0.421500000000     0          
O        O      0.931033333333     0.819600000000     0.474850000000     0          
O        O      0.878000000000     0.680450000000     0.472800000000     0          
O        O      0.955266666667     0.708500000000     0.471800000000     0          
O        O      0.955300000000     0.652950000000     0.471500000000     0          
T        Si     0.929966666667     0.819700000000     0.435150000000     0          
T        Si     0.929933333333     0.680650000000     0.485400000000     0          
O        O      0.711400000000     0.930350000000     0.172500000000     0          
O        O      0.788633333333     0.902450000000     0.171500000000     0          
O        O      0.788633333333     0.958100000000     0.171500000000     0          
O        O      0.764366666667     0.930400000000     0.224850000000     0          
O        O      0.711333333333     0.569550000000     0.222800000000     0          
O        O      0.788600000000     0.541500000000     0.221800000000     0          
O        O      0.788633333333     0.597050000000     0.221500000000     0          
O        O      0.833333333333     0.985100000000     0.125000000000     0          
O        O      0.833333333333     0.504850000000     0.185400000000     0          
O        O      0.833333333333     0.500000000000     0.250000000000     0          
O        O      0.833333333333     0.633500000000     0.185000000000     0          
O        O      0.833333333333     0.638550000000     0.249750000000     0          
O        O      0.833333333333     0.875400000000     0.125000000000     0          
O        O      0.833333333333     0.855800000000     0.185600000000     0          
O        O      0.833333333333     0.654300000000     0.125000000000     0          
T        Si     0.763300000000     0.930300000000     0.185150000000     0          
T        Si     0.763266666667     0.569350000000     0.235400000000     0          
T        Si     0.833333333333     0.976450000000     0.163450000000     0          
T        Si     0.833333333333     0.522000000000     0.219750000000     0          
T        Si     0.833333333333     0.616600000000     0.219500000000     0          
T        Si     0.833333333333     0.884100000000     0.163450000000     0          
T        Si     0.833333333333     0.839150000000     0.220250000000     0          
T        Si     0.833333333333     0.662250000000     0.163650000000     0          
O        O      0.955266666667     0.569650000000     0.422500000000     0          
O        O      0.878033333333     0.597550000000     0.421500000000     0          
O        O      0.878033333333     0.541900000000     0.421500000000     0          
O        O      0.902300000000     0.569600000000     0.474850000000     0          
O        O      0.955333333333     0.930450000000     0.472800000000     0          
O        O      0.878066666667     0.958500000000     0.471800000000     0          
O        O      0.878033333333     0.902950000000     0.471500000000     0          
O        O      0.833333333333     0.514900000000     0.375000000000     0          
O        O      0.833333333333     0.995150000000     0.435400000000     0          
O        O      0.833333333333     0.500000000000     0.000000000000     0          
O        O      0.833333333333     0.866500000000     0.435000000000     0          
O        O      0.833333333333     0.861450000000     0.499750000000     0          
O        O      0.833333333333     0.624600000000     0.375000000000     0          
O        O      0.833333333333     0.644200000000     0.435600000000     0          
O        O      0.833333333333     0.845700000000     0.375000000000     0          
T        Si     0.903366666667     0.569700000000     0.435150000000     0          
T        Si     0.903400000000     0.930650000000     0.485400000000     0          
T        Si     0.833333333333     0.523550000000     0.413450000000     0          
T        Si     0.833333333333     0.978000000000     0.469750000000     0          
T        Si     0.833333333333     0.883400000000     0.469500000000     0          
T        Si     0.833333333333     0.615900000000     0.413450000000     0          
T        Si     0.833333333333     0.660850000000     0.470250000000     0          
T        Si     0.833333333333     0.837750000000     0.413650000000     0          
O        O      0.711400000000     0.569650000000     0.327500000000     0          
O        O      0.788633333333     0.597550000000     0.328500000000     0          
O        O      0.788633333333     0.541900000000     0.328500000000     0          
O        O      0.764366666667     0.569600000000     0.275150000000     0          
O        O      0.711333333333     0.930450000000     0.277200000000     0          
O        O      0.788600000000     0.958500000000     0.278200000000     0          
O        O      0.788633333333     0.902950000000     0.278500000000     0          
O        O      0.833333333333     0.995150000000     0.314600000000     0          
O        O      0.833333333333     0.866500000000     0.315000000000     0          
O        O      0.833333333333     0.861450000000     0.250250000000     0          
O        O      0.833333333333     0.644200000000     0.314400000000     0          
T        Si     0.763300000000     0.569700000000     0.314850000000     0          
T        Si     0.763266666667     0.930650000000     0.264600000000     0          
T        Si     0.833333333333     0.523550000000     0.336550000000     0          
T        Si     0.833333333333     0.978000000000     0.280250000000     0          
T        Si     0.833333333333     0.883400000000     0.280500000000     0          
T        Si     0.833333333333     0.615900000000     0.336550000000     0          
T        Si     0.833333333333     0.660850000000     0.279750000000     0          
T        Si     0.833333333333     0.837750000000     0.336350000000     0          
O        O      0.955266666667     0.930350000000     0.077500000000     0          
O        O      0.878033333333     0.902450000000     0.078500000000     0          
O        O      0.878033333333     0.958100000000     0.078500000000     0          
O        O      0.902300000000     0.930400000000     0.025150000000     0          
O        O      0.955333333333     0.569550000000     0.027200000000     0          
O        O      0.878066666667     0.541500000000     0.028200000000     0          
O        O      0.878033333333     0.597050000000     0.028500000000     0          
O        O      0.833333333333     0.504850000000     0.064600000000     0          
O        O      0.833333333333     0.633500000000     0.065000000000     0          
O        O      0.833333333333     0.638550000000     0.000250000000     0          
O        O      0.833333333333     0.855800000000     0.064400000000     0          
T        Si     0.903366666667     0.930300000000     0.064850000000     0          
T        Si     0.903400000000     0.569350000000     0.014600000000     0          
T        Si     0.833333333333     0.976450000000     0.086550000000     0          
T        Si     0.833333333333     0.522000000000     0.030250000000     0          
T        Si     0.833333333333     0.616600000000     0.030500000000     0          
T        Si     0.833333333333     0.884100000000     0.086550000000     0          
T        Si     0.833333333333     0.839150000000     0.029750000000     0          
T        Si     0.833333333333     0.662250000000     0.086350000000     0          
O        O      0.955266666667     0.569650000000     0.327500000000     0          
O        O      0.878033333333     0.597550000000     0.328500000000     0          
O        O      0.878033333333     0.541900000000     0.328500000000     0          
O        O      0.902300000000     0.569600000000     0.275150000000     0          
O        O      0.955333333333     0.930450000000     0.277200000000     0          
O        O      0.878066666667     0.958500000000     0.278200000000     0          
O        O      0.878033333333     0.902950000000     0.278500000000     0          
T        Si     0.903366666667     0.569700000000     0.314850000000     0          
T        Si     0.903400000000     0.930650000000     0.264600000000     0          
O        O      0.711400000000     0.930350000000     0.077500000000     0          
O        O      0.788633333333     0.902450000000     0.078500000000     0          
O        O      0.788633333333     0.958100000000     0.078500000000     0          
O        O      0.764366666667     0.930400000000     0.025150000000     0          
O        O      0.711333333333     0.569550000000     0.027200000000     0          
O        O      0.788600000000     0.541500000000     0.028200000000     0          
O        O      0.788633333333     0.597050000000     0.028500000000     0          
T        Si     0.763300000000     0.930300000000     0.064850000000     0          
T        Si     0.763266666667     0.569350000000     0.014600000000     0          
O        O      0.955266666667     0.930350000000     0.172500000000     0          
O        O      0.878033333333     0.902450000000     0.171500000000     0          
O        O      0.878033333333     0.958100000000     0.171500000000     0          
O        O      0.902300000000     0.930400000000     0.224850000000     0          
O        O      0.955333333333     0.569550000000     0.222800000000     0          
O        O      0.878066666667     0.541500000000     0.221800000000     0          
O        O      0.878033333333     0.597050000000     0.221500000000     0          
T        Si     0.903366666667     0.930300000000     0.185150000000     0          
T        Si     0.903400000000     0.569350000000     0.235400000000     0          
O        O      0.711400000000     0.569650000000     0.422500000000     0          
O        O      0.788633333333     0.597550000000     0.421500000000     0          
O        O      0.788633333333     0.541900000000     0.421500000000     0          
O        O      0.764366666667     0.569600000000     0.474850000000     0          
O        O      0.711333333333     0.930450000000     0.472800000000     0          
O        O      0.788600000000     0.958500000000     0.471800000000     0          
O        O      0.788633333333     0.902950000000     0.471500000000     0          
T        Si     0.763300000000     0.569700000000     0.435150000000     0          
T        Si     0.763266666667     0.930650000000     0.485400000000     0          
O        O      0.878066666667     0.680350000000     0.672500000000     0          
O        O      0.955300000000     0.652450000000     0.671500000000     0          
O        O      0.955300000000     0.708100000000     0.671500000000     0          
O        O      0.931033333333     0.680400000000     0.724850000000     0          
O        O      0.878000000000     0.819550000000     0.722800000000     0          
O        O      0.955266666667     0.791500000000     0.721800000000     0          
O        O      0.955300000000     0.847050000000     0.721500000000     0          
O        O      0.666666666667     0.735100000000     0.625000000000     0          
O        O      0.666666666667     0.754850000000     0.685400000000     0          
O        O      0.666666666667     0.750000000000     0.750000000000     0          
O        O      0.666666666667     0.883500000000     0.685000000000     0          
O        O      0.666666666667     0.888550000000     0.749750000000     0          
O        O      0.666666666667     0.625400000000     0.625000000000     0          
O        O      0.666666666667     0.605800000000     0.685600000000     0          
O        O      0.666666666667     0.904300000000     0.625000000000     0          
T        Si     0.929966666667     0.680300000000     0.685150000000     0          
T        Si     0.929933333333     0.819350000000     0.735400000000     0          
T        Si     0.666666666667     0.726450000000     0.663450000000     0          
T        Si     0.666666666667     0.772000000000     0.719750000000     0          
T        Si     0.666666666667     0.866600000000     0.719500000000     0          
T        Si     0.666666666667     0.634100000000     0.663450000000     0          
T        Si     0.666666666667     0.589150000000     0.720250000000     0          
T        Si     0.666666666667     0.912250000000     0.663650000000     0          
O        O      0.788600000000     0.819650000000     0.922500000000     0          
O        O      0.711366666667     0.847550000000     0.921500000000     0          
O        O      0.711366666667     0.791900000000     0.921500000000     0          
O        O      0.735633333333     0.819600000000     0.974850000000     0          
O        O      0.788666666667     0.680450000000     0.972800000000     0          
O        O      0.711400000000     0.708500000000     0.971800000000     0          
O        O      0.711366666667     0.652950000000     0.971500000000     0          
O        O      0.666666666667     0.764900000000     0.875000000000     0          
O        O      0.666666666667     0.745150000000     0.935400000000     0          
O        O      0.666666666667     0.750000000000     0.500000000000     0          
O        O      0.666666666667     0.616500000000     0.935000000000     0          
O        O      0.666666666667     0.611450000000     0.999750000000     0          
O        O      0.666666666667     0.874600000000     0.875000000000     0          
O        O      0.666666666667     0.894200000000     0.935600000000     0          
O        O      0.666666666667     0.595700000000     0.875000000000     0          
T        Si     0.736700000000     0.819700000000     0.935150000000     0          
T        Si     0.736733333333     0.680650000000     0.985400000000     0          
T        Si     0.666666666667     0.773550000000     0.913450000000     0          
T        Si     0.666666666667     0.728000000000     0.969750000000     0          
T        Si     0.666666666667     0.633400000000     0.969500000000     0          
T        Si     0.666666666667     0.865900000000     0.913450000000     0          
T        Si     0.666666666667     0.910850000000     0.970250000000     0          
T        Si     0.666666666667     0.587750000000     0.913650000000     0          
O        O      0.878066666667     0.819650000000     0.827500000000     0          
O        O      0.955300000000     0.847550000000     0.828500000000     0          
O        O      0.955300000000     0.791900000000     0.828500000000     0          
O        O      0.931033333333     0.819600000000     0.775150000000     0          
O        O      0.878000000000     0.680450000000     0.777200000000     0          
O        O      0.955266666667     0.708500000000     0.778200000000     0          
O        O      0.955300000000     0.652950000000     0.778500000000     0          
O        O      0.666666666667     0.745150000000     0.814600000000     0          
O        O      0.666666666667     0.616500000000     0.815000000000     0          
O        O      0.666666666667     0.611450000000     0.750250000000     0          
O        O      0.666666666667     0.894200000000     0.814400000000     0          
T        Si     0.929966666667     0.819700000000     0.814850000000     0          
T        Si     0.929933333333     0.680650000000     0.764600000000     0          
T        Si     0.666666666667     0.773550000000     0.836550000000     0          
T        Si     0.666666666667     0.728000000000     0.780250000000     0          
T        Si     0.666666666667     0.633400000000     0.780500000000     0          
T        Si     0.666666666667     0.865900000000     0.836550000000     0          
T        Si     0.666666666667     0.910850000000     0.779750000000     0          
T        Si     0.666666666667     0.587750000000     0.836350000000     0          
O        O      0.788600000000     0.680350000000     0.577500000000     0          
O        O      0.711366666667     0.652450000000     0.578500000000     0          
O        O      0.711366666667     0.708100000000     0.578500000000     0          
O        O      0.735633333333     0.680400000000     0.525150000000     0          
O        O      0.788666666667     0.819550000000     0.527200000000     0          
O        O      0.711400000000     0.791500000000     0.528200000000     0          
O        O      0.711366666667     0.847050000000     0.528500000000     0          
O        O      0.666666666667     0.754850000000     0.564600000000     0          
O        O      0.666666666667     0.883500000000     0.565000000000     0          
O        O      0.666666666667     0.888550000000     0.500250000000     0          
O        O      0.666666666667     0.605800000000     0.564400000000     0          
T        Si     0.736700000000     0.680300000000     0.564850000000     0          
T        Si     0.736733333333     0.819350000000     0.514600000000     0          
T        Si     0.666666666667     0.726450000000     0.586550000000     0          
T        Si     0.666666666667     0.772000000000     0.530250000000     0          
T        Si     0.666666666667     0.866600000000     0.530500000000     0          
T        Si     0.666666666667     0.634100000000     0.586550000000     0          
T        Si     0.666666666667     0.589150000000     0.529750000000     0          
T        Si     0.666666666667     0.912250000000     0.586350000000     0          
O        O      0.788600000000     0.819650000000     0.827500000000     0          
O        O      0.711366666667     0.847550000000     0.828500000000     0          
O        O      0.711366666667     0.791900000000     0.828500000000     0          
O        O      0.735633333333     0.819600000000     0.775150000000     0          
O        O      0.788666666667     0.680450000000     0.777200000000     0          
O        O      0.711400000000     0.708500000000     0.778200000000     0          
O        O      0.711366666667     0.652950000000     0.778500000000     0          
T        Si     0.736700000000     0.819700000000     0.814850000000     0          
T        Si     0.736733333333     0.680650000000     0.764600000000     0          
O        O      0.878066666667     0.680350000000     0.577500000000     0          
O        O      0.955300000000     0.652450000000     0.578500000000     0          
O        O      0.955300000000     0.708100000000     0.578500000000     0          
O        O      0.931033333333     0.680400000000     0.525150000000     0          
O        O      0.878000000000     0.819550000000     0.527200000000     0          
O        O      0.955266666667     0.791500000000     0.528200000000     0          
O        O      0.955300000000     0.847050000000     0.528500000000     0          
T        Si     0.929966666667     0.680300000000     0.564850000000     0          
T        Si     0.929933333333     0.819350000000     0.514600000000     0          
O        O      0.788600000000     0.680350000000     0.672500000000     0          
O        O      0.711366666667     0.652450000000     0.671500000000     0          
O        O      0.711366666667     0.708100000000     0.671500000000     0          
O        O      0.735633333333     0.680400000000     0.724850000000     0          
O        O      0.788666666667     0.819550000000     0.722800000000     0          
O        O      0.711400000000     0.791500000000     0.721800000000     0          
O        O      0.711366666667     0.847050000000     0.721500000000     0          
T        Si     0.736700000000     0.680300000000     0.685150000000     0          
T        Si     0.736733333333     0.819350000000     0.735400000000     0          
O        O      0.878066666667     0.819650000000     0.922500000000     0          
O        O      0.955300000000     0.847550000000     0.921500000000     0          
O        O      0.955300000000     0.791900000000     0.921500000000     0          
O        O      0.931033333333     0.819600000000     0.974850000000     0          
O        O      0.878000000000     0.680450000000     0.972800000000     0          
O        O      0.955266666667     0.708500000000     0.971800000000     0          
O        O      0.955300000000     0.652950000000     0.971500000000     0          
T        Si     0.929966666667     0.819700000000     0.935150000000     0          
T        Si     0.929933333333     0.680650000000     0.985400000000     0          
O        O      0.711400000000     0.930350000000     0.672500000000     0          
O        O      0.788633333333     0.902450000000     0.671500000000     0          
O        O      0.788633333333     0.958100000000     0.671500000000     0          
O        O      0.764366666667     0.930400000000     0.724850000000     0          
O        O      0.711333333333     0.569550000000     0.722800000000     0          
O        O      0.788600000000     0.541500000000     0.721800000000     0          
O        O      0.788633333333     0.597050000000     0.721500000000     0          
O        O      0.833333333333     0.985100000000     0.625000000000     0          
O        O      0.833333333333     0.504850000000     0.685400000000     0          
O        O      0.833333333333     0.500000000000     0.750000000000     0          
O        O      0.833333333333     0.633500000000     0.685000000000     0          
O        O      0.833333333333     0.638550000000     0.749750000000     0          
O        O      0.833333333333     0.875400000000     0.625000000000     0          
O        O      0.833333333333     0.855800000000     0.685600000000     0          
O        O      0.833333333333     0.654300000000     0.625000000000     0          
T        Si     0.763300000000     0.930300000000     0.685150000000     0          
T        Si     0.763266666667     0.569350000000     0.735400000000     0          
T        Si     0.833333333333     0.976450000000     0.663450000000     0          
T        Si     0.833333333333     0.522000000000     0.719750000000     0          
T        Si     0.833333333333     0.616600000000     0.719500000000     0          
T        Si     0.833333333333     0.884100000000     0.663450000000     0          
T        Si     0.833333333333     0.839150000000     0.720250000000     0          
T        Si     0.833333333333     0.662250000000     0.663650000000     0          
O        O      0.955266666667     0.569650000000     0.922500000000     0          
O        O      0.878033333333     0.597550000000     0.921500000000     0          
O        O      0.878033333333     0.541900000000     0.921500000000     0          
O        O      0.902300000000     0.569600000000     0.974850000000     0          
O        O      0.955333333333     0.930450000000     0.972800000000     0          
O        O      0.878066666667     0.958500000000     0.971800000000     0          
O        O      0.878033333333     0.902950000000     0.971500000000     0          
O        O      0.833333333333     0.514900000000     0.875000000000     0          
O        O      0.833333333333     0.995150000000     0.935400000000     0          
O        O      0.833333333333     0.500000000000     0.500000000000     0          
O        O      0.833333333333     0.866500000000     0.935000000000     0          
O        O      0.833333333333     0.861450000000     0.999750000000     0          
O        O      0.833333333333     0.624600000000     0.875000000000     0          
O        O      0.833333333333     0.644200000000     0.935600000000     0          
O        O      0.833333333333     0.845700000000     0.875000000000     0          
T        Si     0.903366666667     0.569700000000     0.935150000000     0          
T        Si     0.903400000000     0.930650000000     0.985400000000     0          
T        Si     0.833333333333     0.523550000000     0.913450000000     0          
T        Si     0.833333333333     0.978000000000     0.969750000000     0          
T        Si     0.833333333333     0.883400000000     0.969500000000     0          
T        Si     0.833333333333     0.615900000000     0.913450000000     0          
T        Si     0.833333333333     0.660850000000     0.970250000000     0          
T        Si     0.833333333333     0.837750000000     0.913650000000     0          
O        O      0.711400000000     0.569650000000     0.827500000000     0          
O        O      0.788633333333     0.597550000000     0.828500000000     0          
O        O      0.788633333333     0.541900000000     0.828500000000     0          
O        O      0.764366666667     0.569600000000     0.775150000000     0          
O        O      0.711333333333     0.930450000000     0.777200000000     0          
O        O      0.788600000000     0.958500000000     0.778200000000     0          
O        O      0.788633333333     0.902950000000     0.778500000000     0          
O        O      0.833333333333     0.995150000000     0.814600000000     0          
O        O      0.833333333333     0.866500000000     0.815000000000     0          
O        O      0.833333333333     0.861450000000     0.750250000000     0          
O        O      0.833333333333     0.644200000000     0.814400000000     0          
T        Si     0.763300000000     0.569700000000     0.814850000000     0          
T        Si     0.763266666667     0.930650000000     0.764600000000     0          
T        Si     0.833333333333     0.523550000000     0.836550000000     0          
T        Si     0.833333333333     0.978000000000     0.780250000000     0          
T        Si     0.833333333333     0.883400000000     0.780500000000     0          
T        Si     0.833333333333     0.615900000000     0.836550000000     0          
T        Si     0.833333333333     0.660850000000     0.779750000000     0          
T        Si     0.833333333333     0.837750000000     0.836350000000     0          
O        O      0.955266666667     0.930350000000     0.577500000000     0          
O        O      0.878033333333     0.902450000000     0.578500000000     0          
O        O      0.878033333333     0.958100000000     0.578500000000     0          
O        O      0.902300000000     0.930400000000     0.525150000000     0          
O        O      0.955333333333     0.569550000000     0.527200000000     0          
O        O      0.878066666667     0.541500000000     0.528200000000     0          
O        O      0.878033333333     0.597050000000     0.528500000000     0          
O        O      0.833333333333     0.504850000000     0.564600000000     0          
O        O      0.833333333333     0.633500000000     0.565000000000     0          
O        O      0.833333333333     0.638550000000     0.500250000000     0          
O        O      0.833333333333     0.855800000000     0.564400000000     0          
T        Si     0.903366666667     0.930300000000     0.564850000000     0          
T        Si     0.903400000000     0.569350000000     0.514600000000     0          
T        Si     0.833333333333     0.976450000000     0.586550000000     0          
T        Si     0.833333333333     0.522000000000     0.530250000000     0          
T        Si     0.833333333333     0.616600000000     0.530500000000     0          
T        Si     0.833333333333     0.884100000000     0.586550000000     0          
T        Si     0.833333333333     0.839150000000     0.529750000000     0          
T        Si     0.833333333333     0.662250000000     0.586350000000     0          
O        O      0.955266666667     0.569650000000     0.827500000000     0          
O        O      0.878033333333     0.597550000000     0.828500000000     0          
O        O      0.878033333333     0.541900000000     0.828500000000     0          
O        O      0.902300000000     0.569600000000     0.775150000000     0          
O        O      0.955333333333     0.930450000000     0.777200000000     0          
O        O      0.878066666667     0.958500000000     0.778200000000     0          
O        O      0.878033333333     0.902950000000     0.778500000000     0          
T        Si     0.903366666667     0.569700000000     0.814850000000     0          
T        Si     0.903400000000     0.930650000000     0.764600000000     0          
O        O      0.711400000000     0.930350000000     0.577500000000     0          
O        O      0.788633333333     0.902450000000     0.578500000000     0          
O        O      0.788633333333     0.958100000000     0.578500000000     0          
O        O      0.764366666667     0.930400000000     0.525150000000     0          
O        O      0.711333333333     0.569550000000     0.527200000000     0          
O        O      0.788600000000     0.541500000000     0.528200000000     0          
O        O      0.788633333333     0.597050000000     0.528500000000     0          
T        Si     0.763300000000     0.930300000000     0.564850000000     0          
T        Si     0.763266666667     0.569350000000     0.514600000000     0          
O        O      0.955266666667     0.930350000000     0.672500000000     0          
O        O      0.878033333333     0.902450000000     0.671500000000     0          
O        O      0.878033333333     0.958100000000     0.671500000000     0          
O        O      0.902300000000     0.930400000000     0.724850000000     0          
O        O      0.955333333333     0.569550000000     0.722800000000     0          
O        O      0.878066666667     0.541500000000     0.721800000000     0          
O        O      0.878033333333     0.597050000000     0.721500000000     0          
T        Si     0.903366666667     0.930300000000     0.685150000000     0          
T        Si     0.903400000000     0.569350000000     0.735400000000     0          
O        O      0.711400000000     0.569650000000     0.922500000000     0          
O        O      0.788633333333     0.597550000000     0.921500000000     0          
O        O      0.788633333333     0.541900000000     0.921500000000     0          
O        O      0.764366666667     0.569600000000     0.974850000000     0          
O        O      0.711333333333     0.930450000000     0.972800000000     0          
O        O      0.788600000000     0.958500000000     0.971800000000     0          
O        O      0.788633333333     0.902950000000     0.971500000000     0          
T        Si     0.763300000000     0.569700000000     0.935150000000     0          
T        Si     0.763266666667     0.930650000000     0.985400000000     0          


