data_zeolite

_audit_creation_method RASPA-1.0
_audit_creation_date 2021-6-8
_audit_author_name ''

_cell_length_a    38.1532
_cell_length_b    43.9786
_cell_length_c    38.7639
_cell_angle_alpha 90
_cell_angle_beta  90
_cell_angle_gamma 90
_cell_volume      65043

_symmetry_cell_setting          orthorhombic
_symmetry_space_group_name_Hall 'P 1'
_symmetry_space_group_name_H-M  'P 1'
_symmetry_Int_Tables_number     1

_symmetry_equiv_pos_as_xyz 'x,y,z'

loop_
_atom_site_label
_atom_site_type_symbol
_atom_site_fract_x
_atom_site_fract_y
_atom_site_fract_z
_atom_site_charge
T        Si     0.063336666667     0.177615000000     0.839600000000     0          
T        Si     0.063673333333     0.178115000000     0.967370000000     0          
T        Si     0.126596666667     0.215195000000     0.863240000000     0          
T        Si     0.041236666667     0.138720000000     0.903300000000     0          
T        Si     0.040950000000     0.134590000000     0.781510000000     0          
T        Si     0.126590000000     0.215350000000     0.943550000000     0          
T        Si     0.039693333333     0.133240000000     0.022720000000     0          
T        Si     0.039910000000     0.071535000000     0.926370000000     0          
T        Si     0.065156666667     0.068200000000     0.797790000000     0          
T        Si     0.040983333333     0.132470000000     0.700060000000     0          
T        Si     0.065880000000     0.068535000000     0.000600000000     0          
T        Si     0.039870000000     0.130260000000     0.104360000000     0          
T        Si     0.040736666667     0.034310000000     0.860910000000     0          
T        Si     0.126720000000     0.034135000000     0.762410000000     0          
T        Si     0.065103333333     0.076300000000     0.660770000000     0          
T        Si     0.063620000000     0.176410000000     0.641290000000     0          
T        Si     0.126286666667     0.034515000000     0.038790000000     0          
T        Si     0.126720000000     0.034415000000     0.680990000000     0          
T        Si     0.126420000000     0.214930000000     0.618610000000     0          
T        Si     0.000000000000     0.213730000000     0.866810000000     0          
T        Si     0.000000000000     0.213785000000     0.941920000000     0          
T        Si     0.000000000000     0.034665000000     0.762580000000     0          
T        Si     0.000000000000     0.036535000000     0.035640000000     0          
T        Si     0.000000000000     0.034655000000     0.679630000000     0          
T        Si     0.000000000000     0.213470000000     0.613740000000     0          
O        O      0.057230000000     0.163225000000     0.801870000000     0          
O        O      0.034500000000     0.203785000000     0.845790000000     0          
O        O      0.101746666667     0.192720000000     0.841400000000     0          
O        O      0.059176666667     0.151795000000     0.868750000000     0          
O        O      0.102160000000     0.193080000000     0.966080000000     0          
O        O      0.034543333333     0.204325000000     0.963150000000     0          
O        O      0.058163333333     0.161770000000     0.004130000000     0          
O        O      0.059536666667     0.153915000000     0.936520000000     0          
O        O      0.114683333333     0.250000000000     0.857820000000     0          
O        O      0.166666666667     0.211260000000     0.850950000000     0          
O        O      0.123586666667     0.206330000000     0.903430000000     0          
O        O      0.047220000000     0.102515000000     0.905460000000     0          
O        O      0.000000000000     0.146340000000     0.903210000000     0          
O        O      0.061140000000     0.104490000000     0.794290000000     0          
O        O      0.045806666667     0.139195000000     0.740610000000     0          
O        O      0.000000000000     0.131540000000     0.790790000000     0          
O        O      0.166666666667     0.211975000000     0.955970000000     0          
O        O      0.114030000000     0.250000000000     0.948780000000     0          
O        O      0.039586666667     0.138150000000     0.063840000000     0          
O        O      0.000000000000     0.129790000000     0.009170000000     0          
O        O      0.061610000000     0.102990000000     0.013900000000     0          
O        O      0.045566666667     0.042960000000     0.900990000000     0          
O        O      0.000000000000     0.071585000000     0.939890000000     0          
O        O      0.065673333333     0.068460000000     0.959070000000     0          
O        O      0.062690000000     0.057860000000     0.837560000000     0          
O        O      0.034553333333     0.051835000000     0.776140000000     0          
O        O      0.102823333333     0.058260000000     0.782890000000     0          
O        O      0.061973333333     0.101825000000     0.690390000000     0          
O        O      0.056560000000     0.160440000000     0.678030000000     0          
O        O      0.000000000000     0.128225000000     0.691430000000     0          
O        O      0.103010000000     0.056100000000     0.014350000000     0          
O        O      0.034446666667     0.048040000000     0.015550000000     0          
O        O      0.060580000000     0.098965000000     0.111460000000     0          
O        O      0.000000000000     0.127770000000     0.117760000000     0          
O        O      0.060040000000     0.157430000000     0.123890000000     0          
O        O      0.000000000000     0.036735000000     0.850500000000     0          
O        O      0.054013333333     0.000000000000     0.854500000000     0          
O        O      0.166666666667     0.037170000000     0.775370000000     0          
O        O      0.124876666667     0.041225000000     0.721740000000     0          
O        O      0.113196666667     0.000000000000     0.769460000000     0          
O        O      0.102196666667     0.058880000000     0.661700000000     0          
O        O      0.034470000000     0.051500000000     0.665380000000     0          
O        O      0.101426666667     0.192705000000     0.640690000000     0          
O        O      0.034296666667     0.201975000000     0.634110000000     0          
O        O      0.112926666667     0.000000000000     0.034440000000     0          
O        O      0.166666666667     0.036760000000     0.027060000000     0          
O        O      0.122580000000     0.044370000000     0.078600000000     0          
O        O      0.114256666667     0.000000000000     0.673700000000     0          
O        O      0.166666666667     0.038370000000     0.668270000000     0          
O        O      0.166666666667     0.210495000000     0.630160000000     0          
O        O      0.115393333333     0.250000000000     0.623750000000     0          
O        O      0.000000000000     0.250000000000     0.871910000000     0          
O        O      0.000000000000     0.198020000000     0.904380000000     0          
O        O      0.000000000000     0.250000000000     0.936370000000     0          
O        O      0.000000000000     0.000000000000     0.775950000000     0          
O        O      0.000000000000     0.035050000000     0.721090000000     0          
O        O      0.000000000000     0.000000000000     0.036380000000     0          
O        O      0.000000000000     0.049070000000     0.074690000000     0          
O        O      0.000000000000     0.000000000000     0.666220000000     0          
O        O      0.000000000000     0.250000000000     0.613000000000     0          
T        Si     0.269996666667     0.322385000000     0.839600000000     0          
T        Si     0.269660000000     0.321885000000     0.967370000000     0          
T        Si     0.206736666667     0.284805000000     0.863240000000     0          
T        Si     0.292096666667     0.361280000000     0.903300000000     0          
T        Si     0.292383333333     0.365410000000     0.781510000000     0          
T        Si     0.206743333333     0.284650000000     0.943550000000     0          
T        Si     0.293640000000     0.366760000000     0.022720000000     0          
T        Si     0.293423333333     0.428465000000     0.926370000000     0          
T        Si     0.268176666667     0.431800000000     0.797790000000     0          
T        Si     0.292350000000     0.367530000000     0.700060000000     0          
T        Si     0.267453333333     0.431465000000     0.000600000000     0          
T        Si     0.293463333333     0.369740000000     0.104360000000     0          
T        Si     0.292596666667     0.465690000000     0.860910000000     0          
T        Si     0.206613333333     0.465865000000     0.762410000000     0          
T        Si     0.268230000000     0.423700000000     0.660770000000     0          
T        Si     0.269713333333     0.323590000000     0.641290000000     0          
T        Si     0.207046666667     0.465485000000     0.038790000000     0          
T        Si     0.206613333333     0.465585000000     0.680990000000     0          
T        Si     0.206913333333     0.285070000000     0.618610000000     0          
T        Si     0.000000000000     0.286270000000     0.866810000000     0          
T        Si     0.000000000000     0.286215000000     0.941920000000     0          
T        Si     0.000000000000     0.465335000000     0.762580000000     0          
T        Si     0.000000000000     0.463465000000     0.035640000000     0          
T        Si     0.000000000000     0.465345000000     0.679630000000     0          
T        Si     0.000000000000     0.286530000000     0.613740000000     0          
O        O      0.276103333333     0.336775000000     0.801870000000     0          
O        O      0.298833333333     0.296215000000     0.845790000000     0          
O        O      0.231586666667     0.307280000000     0.841400000000     0          
O        O      0.274156666667     0.348205000000     0.868750000000     0          
O        O      0.231173333333     0.306920000000     0.966080000000     0          
O        O      0.298790000000     0.295675000000     0.963150000000     0          
O        O      0.275170000000     0.338230000000     0.004130000000     0          
O        O      0.273796666667     0.346085000000     0.936520000000     0          
O        O      0.218650000000     0.250000000000     0.857820000000     0          
O        O      0.166666666667     0.288740000000     0.850950000000     0          
O        O      0.209746666667     0.293670000000     0.903430000000     0          
O        O      0.286113333333     0.397485000000     0.905460000000     0          
O        O      0.000000000000     0.353660000000     0.903210000000     0          
O        O      0.272193333333     0.395510000000     0.794290000000     0          
O        O      0.287526666667     0.360805000000     0.740610000000     0          
O        O      0.000000000000     0.368460000000     0.790790000000     0          
O        O      0.166666666667     0.288025000000     0.955970000000     0          
O        O      0.219303333333     0.250000000000     0.948780000000     0          
O        O      0.293746666667     0.361850000000     0.063840000000     0          
O        O      0.000000000000     0.370210000000     0.009170000000     0          
O        O      0.271723333333     0.397010000000     0.013900000000     0          
O        O      0.287766666667     0.457040000000     0.900990000000     0          
O        O      0.000000000000     0.428415000000     0.939890000000     0          
O        O      0.267660000000     0.431540000000     0.959070000000     0          
O        O      0.270643333333     0.442140000000     0.837560000000     0          
O        O      0.298780000000     0.448165000000     0.776140000000     0          
O        O      0.230510000000     0.441740000000     0.782890000000     0          
O        O      0.271360000000     0.398175000000     0.690390000000     0          
O        O      0.276773333333     0.339560000000     0.678030000000     0          
O        O      0.000000000000     0.371775000000     0.691430000000     0          
O        O      0.230323333333     0.443900000000     0.014350000000     0          
O        O      0.298886666667     0.451960000000     0.015550000000     0          
O        O      0.272753333333     0.401035000000     0.111460000000     0          
O        O      0.000000000000     0.372230000000     0.117760000000     0          
O        O      0.273293333333     0.342570000000     0.123890000000     0          
O        O      0.000000000000     0.463265000000     0.850500000000     0          
O        O      0.279320000000     0.000000000000     0.854500000000     0          
O        O      0.166666666667     0.462830000000     0.775370000000     0          
O        O      0.208456666667     0.458775000000     0.721740000000     0          
O        O      0.220136666667     0.000000000000     0.769460000000     0          
O        O      0.231136666667     0.441120000000     0.661700000000     0          
O        O      0.298863333333     0.448500000000     0.665380000000     0          
O        O      0.231906666667     0.307295000000     0.640690000000     0          
O        O      0.299036666667     0.298025000000     0.634110000000     0          
O        O      0.220406666667     0.000000000000     0.034440000000     0          
O        O      0.166666666667     0.463240000000     0.027060000000     0          
O        O      0.210753333333     0.455630000000     0.078600000000     0          
O        O      0.219076666667     0.000000000000     0.673700000000     0          
O        O      0.166666666667     0.461630000000     0.668270000000     0          
O        O      0.166666666667     0.289505000000     0.630160000000     0          
O        O      0.217940000000     0.250000000000     0.623750000000     0          
O        O      0.000000000000     0.301980000000     0.904380000000     0          
O        O      0.000000000000     0.464950000000     0.721090000000     0          
O        O      0.000000000000     0.450930000000     0.074690000000     0          
T        Si     0.269996666667     0.177615000000     0.839600000000     0          
T        Si     0.269660000000     0.178115000000     0.967370000000     0          
T        Si     0.206736666667     0.215195000000     0.863240000000     0          
T        Si     0.292096666667     0.138720000000     0.903300000000     0          
T        Si     0.292383333333     0.134590000000     0.781510000000     0          
T        Si     0.206743333333     0.215350000000     0.943550000000     0          
T        Si     0.293640000000     0.133240000000     0.022720000000     0          
T        Si     0.293423333333     0.071535000000     0.926370000000     0          
T        Si     0.268176666667     0.068200000000     0.797790000000     0          
T        Si     0.292350000000     0.132470000000     0.700060000000     0          
T        Si     0.267453333333     0.068535000000     0.000600000000     0          
T        Si     0.293463333333     0.130260000000     0.104360000000     0          
T        Si     0.292596666667     0.034310000000     0.860910000000     0          
T        Si     0.206613333333     0.034135000000     0.762410000000     0          
T        Si     0.268230000000     0.076300000000     0.660770000000     0          
T        Si     0.269713333333     0.176410000000     0.641290000000     0          
T        Si     0.207046666667     0.034515000000     0.038790000000     0          
T        Si     0.206613333333     0.034415000000     0.680990000000     0          
T        Si     0.206913333333     0.214930000000     0.618610000000     0          
O        O      0.276103333333     0.163225000000     0.801870000000     0          
O        O      0.298833333333     0.203785000000     0.845790000000     0          
O        O      0.231586666667     0.192720000000     0.841400000000     0          
O        O      0.274156666667     0.151795000000     0.868750000000     0          
O        O      0.231173333333     0.193080000000     0.966080000000     0          
O        O      0.298790000000     0.204325000000     0.963150000000     0          
O        O      0.275170000000     0.161770000000     0.004130000000     0          
O        O      0.273796666667     0.153915000000     0.936520000000     0          
O        O      0.209746666667     0.206330000000     0.903430000000     0          
O        O      0.286113333333     0.102515000000     0.905460000000     0          
O        O      0.272193333333     0.104490000000     0.794290000000     0          
O        O      0.287526666667     0.139195000000     0.740610000000     0          
O        O      0.293746666667     0.138150000000     0.063840000000     0          
O        O      0.271723333333     0.102990000000     0.013900000000     0          
O        O      0.287766666667     0.042960000000     0.900990000000     0          
O        O      0.267660000000     0.068460000000     0.959070000000     0          
O        O      0.270643333333     0.057860000000     0.837560000000     0          
O        O      0.298780000000     0.051835000000     0.776140000000     0          
O        O      0.230510000000     0.058260000000     0.782890000000     0          
O        O      0.271360000000     0.101825000000     0.690390000000     0          
O        O      0.276773333333     0.160440000000     0.678030000000     0          
O        O      0.230323333333     0.056100000000     0.014350000000     0          
O        O      0.298886666667     0.048040000000     0.015550000000     0          
O        O      0.272753333333     0.098965000000     0.111460000000     0          
O        O      0.273293333333     0.157430000000     0.123890000000     0          
O        O      0.208456666667     0.041225000000     0.721740000000     0          
O        O      0.231136666667     0.058880000000     0.661700000000     0          
O        O      0.298863333333     0.051500000000     0.665380000000     0          
O        O      0.231906666667     0.192705000000     0.640690000000     0          
O        O      0.299036666667     0.201975000000     0.634110000000     0          
O        O      0.210753333333     0.044370000000     0.078600000000     0          
T        Si     0.063336666667     0.322385000000     0.839600000000     0          
T        Si     0.063673333333     0.321885000000     0.967370000000     0          
T        Si     0.126596666667     0.284805000000     0.863240000000     0          
T        Si     0.041236666667     0.361280000000     0.903300000000     0          
T        Si     0.040950000000     0.365410000000     0.781510000000     0          
T        Si     0.126590000000     0.284650000000     0.943550000000     0          
T        Si     0.039693333333     0.366760000000     0.022720000000     0          
T        Si     0.039910000000     0.428465000000     0.926370000000     0          
T        Si     0.065156666667     0.431800000000     0.797790000000     0          
T        Si     0.040983333333     0.367530000000     0.700060000000     0          
T        Si     0.065880000000     0.431465000000     0.000600000000     0          
T        Si     0.039870000000     0.369740000000     0.104360000000     0          
T        Si     0.040736666667     0.465690000000     0.860910000000     0          
T        Si     0.126720000000     0.465865000000     0.762410000000     0          
T        Si     0.065103333333     0.423700000000     0.660770000000     0          
T        Si     0.063620000000     0.323590000000     0.641290000000     0          
T        Si     0.126286666667     0.465485000000     0.038790000000     0          
T        Si     0.126720000000     0.465585000000     0.680990000000     0          
T        Si     0.126420000000     0.285070000000     0.618610000000     0          
O        O      0.057230000000     0.336775000000     0.801870000000     0          
O        O      0.034500000000     0.296215000000     0.845790000000     0          
O        O      0.101746666667     0.307280000000     0.841400000000     0          
O        O      0.059176666667     0.348205000000     0.868750000000     0          
O        O      0.102160000000     0.306920000000     0.966080000000     0          
O        O      0.034543333333     0.295675000000     0.963150000000     0          
O        O      0.058163333333     0.338230000000     0.004130000000     0          
O        O      0.059536666667     0.346085000000     0.936520000000     0          
O        O      0.123586666667     0.293670000000     0.903430000000     0          
O        O      0.047220000000     0.397485000000     0.905460000000     0          
O        O      0.061140000000     0.395510000000     0.794290000000     0          
O        O      0.045806666667     0.360805000000     0.740610000000     0          
O        O      0.039586666667     0.361850000000     0.063840000000     0          
O        O      0.061610000000     0.397010000000     0.013900000000     0          
O        O      0.045566666667     0.457040000000     0.900990000000     0          
O        O      0.065673333333     0.431540000000     0.959070000000     0          
O        O      0.062690000000     0.442140000000     0.837560000000     0          
O        O      0.034553333333     0.448165000000     0.776140000000     0          
O        O      0.102823333333     0.441740000000     0.782890000000     0          
O        O      0.061973333333     0.398175000000     0.690390000000     0          
O        O      0.056560000000     0.339560000000     0.678030000000     0          
O        O      0.103010000000     0.443900000000     0.014350000000     0          
O        O      0.034446666667     0.451960000000     0.015550000000     0          
O        O      0.060580000000     0.401035000000     0.111460000000     0          
O        O      0.060040000000     0.342570000000     0.123890000000     0          
O        O      0.124876666667     0.458775000000     0.721740000000     0          
O        O      0.102196666667     0.441120000000     0.661700000000     0          
O        O      0.034470000000     0.448500000000     0.665380000000     0          
O        O      0.101426666667     0.307295000000     0.640690000000     0          
O        O      0.034296666667     0.298025000000     0.634110000000     0          
O        O      0.122580000000     0.455630000000     0.078600000000     0          
T        Si     0.063336666667     0.427615000000     0.339600000000     0          
T        Si     0.063673333333     0.428115000000     0.467370000000     0          
T        Si     0.126596666667     0.465195000000     0.363240000000     0          
T        Si     0.041236666667     0.388720000000     0.403300000000     0          
T        Si     0.040950000000     0.384590000000     0.281510000000     0          
T        Si     0.126590000000     0.465350000000     0.443550000000     0          
T        Si     0.039693333333     0.383240000000     0.522720000000     0          
T        Si     0.039910000000     0.321535000000     0.426370000000     0          
T        Si     0.065156666667     0.318200000000     0.297790000000     0          
T        Si     0.040983333333     0.382470000000     0.200060000000     0          
T        Si     0.065880000000     0.318535000000     0.500600000000     0          
T        Si     0.039870000000     0.380260000000     0.604360000000     0          
T        Si     0.040736666667     0.284310000000     0.360910000000     0          
T        Si     0.126720000000     0.284135000000     0.262410000000     0          
T        Si     0.065103333333     0.326300000000     0.160770000000     0          
T        Si     0.063620000000     0.426410000000     0.141290000000     0          
T        Si     0.126286666667     0.284515000000     0.538790000000     0          
T        Si     0.126720000000     0.284415000000     0.180990000000     0          
T        Si     0.126420000000     0.464930000000     0.118610000000     0          
T        Si     0.000000000000     0.463730000000     0.366810000000     0          
T        Si     0.000000000000     0.463785000000     0.441920000000     0          
T        Si     0.000000000000     0.284665000000     0.262580000000     0          
T        Si     0.000000000000     0.286535000000     0.535640000000     0          
T        Si     0.000000000000     0.284655000000     0.179630000000     0          
T        Si     0.000000000000     0.463470000000     0.113740000000     0          
O        O      0.057230000000     0.413225000000     0.301870000000     0          
O        O      0.034500000000     0.453785000000     0.345790000000     0          
O        O      0.101746666667     0.442720000000     0.341400000000     0          
O        O      0.059176666667     0.401795000000     0.368750000000     0          
O        O      0.102160000000     0.443080000000     0.466080000000     0          
O        O      0.034543333333     0.454325000000     0.463150000000     0          
O        O      0.058163333333     0.411770000000     0.504130000000     0          
O        O      0.059536666667     0.403915000000     0.436520000000     0          
O        O      0.114683333333     0.000000000000     0.357820000000     0          
O        O      0.166666666667     0.461260000000     0.350950000000     0          
O        O      0.123586666667     0.456330000000     0.403430000000     0          
O        O      0.047220000000     0.352515000000     0.405460000000     0          
O        O      0.000000000000     0.396340000000     0.403210000000     0          
O        O      0.061140000000     0.354490000000     0.294290000000     0          
O        O      0.045806666667     0.389195000000     0.240610000000     0          
O        O      0.000000000000     0.381540000000     0.290790000000     0          
O        O      0.166666666667     0.461975000000     0.455970000000     0          
O        O      0.114030000000     0.000000000000     0.448780000000     0          
O        O      0.039586666667     0.388150000000     0.563840000000     0          
O        O      0.000000000000     0.379790000000     0.509170000000     0          
O        O      0.061610000000     0.352990000000     0.513900000000     0          
O        O      0.045566666667     0.292960000000     0.400990000000     0          
O        O      0.000000000000     0.321585000000     0.439890000000     0          
O        O      0.065673333333     0.318460000000     0.459070000000     0          
O        O      0.062690000000     0.307860000000     0.337560000000     0          
O        O      0.034553333333     0.301835000000     0.276140000000     0          
O        O      0.102823333333     0.308260000000     0.282890000000     0          
O        O      0.061973333333     0.351825000000     0.190390000000     0          
O        O      0.056560000000     0.410440000000     0.178030000000     0          
O        O      0.000000000000     0.378225000000     0.191430000000     0          
O        O      0.103010000000     0.306100000000     0.514350000000     0          
O        O      0.034446666667     0.298040000000     0.515550000000     0          
O        O      0.060580000000     0.348965000000     0.611460000000     0          
O        O      0.000000000000     0.377770000000     0.617760000000     0          
O        O      0.060040000000     0.407430000000     0.623890000000     0          
O        O      0.000000000000     0.286735000000     0.350500000000     0          
O        O      0.054013333333     0.250000000000     0.354500000000     0          
O        O      0.166666666667     0.287170000000     0.275370000000     0          
O        O      0.124876666667     0.291225000000     0.221740000000     0          
O        O      0.113196666667     0.250000000000     0.269460000000     0          
O        O      0.102196666667     0.308880000000     0.161700000000     0          
O        O      0.034470000000     0.301500000000     0.165380000000     0          
O        O      0.101426666667     0.442705000000     0.140690000000     0          
O        O      0.034296666667     0.451975000000     0.134110000000     0          
O        O      0.112926666667     0.250000000000     0.534440000000     0          
O        O      0.166666666667     0.286760000000     0.527060000000     0          
O        O      0.122580000000     0.294370000000     0.578600000000     0          
O        O      0.114256666667     0.250000000000     0.173700000000     0          
O        O      0.166666666667     0.288370000000     0.168270000000     0          
O        O      0.166666666667     0.460495000000     0.130160000000     0          
O        O      0.115393333333     0.000000000000     0.123750000000     0          
O        O      0.000000000000     0.000000000000     0.371910000000     0          
O        O      0.000000000000     0.448020000000     0.404380000000     0          
O        O      0.000000000000     0.000000000000     0.436370000000     0          
O        O      0.000000000000     0.250000000000     0.275950000000     0          
O        O      0.000000000000     0.285050000000     0.221090000000     0          
O        O      0.000000000000     0.250000000000     0.536380000000     0          
O        O      0.000000000000     0.299070000000     0.574690000000     0          
O        O      0.000000000000     0.250000000000     0.166220000000     0          
O        O      0.000000000000     0.000000000000     0.113000000000     0          
T        Si     0.269996666667     0.072385000000     0.339600000000     0          
T        Si     0.269660000000     0.071885000000     0.467370000000     0          
T        Si     0.206736666667     0.034805000000     0.363240000000     0          
T        Si     0.292096666667     0.111280000000     0.403300000000     0          
T        Si     0.292383333333     0.115410000000     0.281510000000     0          
T        Si     0.206743333333     0.034650000000     0.443550000000     0          
T        Si     0.293640000000     0.116760000000     0.522720000000     0          
T        Si     0.293423333333     0.178465000000     0.426370000000     0          
T        Si     0.268176666667     0.181800000000     0.297790000000     0          
T        Si     0.292350000000     0.117530000000     0.200060000000     0          
T        Si     0.267453333333     0.181465000000     0.500600000000     0          
T        Si     0.293463333333     0.119740000000     0.604360000000     0          
T        Si     0.292596666667     0.215690000000     0.360910000000     0          
T        Si     0.206613333333     0.215865000000     0.262410000000     0          
T        Si     0.268230000000     0.173700000000     0.160770000000     0          
T        Si     0.269713333333     0.073590000000     0.141290000000     0          
T        Si     0.207046666667     0.215485000000     0.538790000000     0          
T        Si     0.206613333333     0.215585000000     0.180990000000     0          
T        Si     0.206913333333     0.035070000000     0.118610000000     0          
T        Si     0.000000000000     0.036270000000     0.366810000000     0          
T        Si     0.000000000000     0.036215000000     0.441920000000     0          
T        Si     0.000000000000     0.215335000000     0.262580000000     0          
T        Si     0.000000000000     0.213465000000     0.535640000000     0          
T        Si     0.000000000000     0.215345000000     0.179630000000     0          
T        Si     0.000000000000     0.036530000000     0.113740000000     0          
O        O      0.276103333333     0.086775000000     0.301870000000     0          
O        O      0.298833333333     0.046215000000     0.345790000000     0          
O        O      0.231586666667     0.057280000000     0.341400000000     0          
O        O      0.274156666667     0.098205000000     0.368750000000     0          
O        O      0.231173333333     0.056920000000     0.466080000000     0          
O        O      0.298790000000     0.045675000000     0.463150000000     0          
O        O      0.275170000000     0.088230000000     0.504130000000     0          
O        O      0.273796666667     0.096085000000     0.436520000000     0          
O        O      0.218650000000     0.000000000000     0.357820000000     0          
O        O      0.166666666667     0.038740000000     0.350950000000     0          
O        O      0.209746666667     0.043670000000     0.403430000000     0          
O        O      0.286113333333     0.147485000000     0.405460000000     0          
O        O      0.000000000000     0.103660000000     0.403210000000     0          
O        O      0.272193333333     0.145510000000     0.294290000000     0          
O        O      0.287526666667     0.110805000000     0.240610000000     0          
O        O      0.000000000000     0.118460000000     0.290790000000     0          
O        O      0.166666666667     0.038025000000     0.455970000000     0          
O        O      0.219303333333     0.000000000000     0.448780000000     0          
O        O      0.293746666667     0.111850000000     0.563840000000     0          
O        O      0.000000000000     0.120210000000     0.509170000000     0          
O        O      0.271723333333     0.147010000000     0.513900000000     0          
O        O      0.287766666667     0.207040000000     0.400990000000     0          
O        O      0.000000000000     0.178415000000     0.439890000000     0          
O        O      0.267660000000     0.181540000000     0.459070000000     0          
O        O      0.270643333333     0.192140000000     0.337560000000     0          
O        O      0.298780000000     0.198165000000     0.276140000000     0          
O        O      0.230510000000     0.191740000000     0.282890000000     0          
O        O      0.271360000000     0.148175000000     0.190390000000     0          
O        O      0.276773333333     0.089560000000     0.178030000000     0          
O        O      0.000000000000     0.121775000000     0.191430000000     0          
O        O      0.230323333333     0.193900000000     0.514350000000     0          
O        O      0.298886666667     0.201960000000     0.515550000000     0          
O        O      0.272753333333     0.151035000000     0.611460000000     0          
O        O      0.000000000000     0.122230000000     0.617760000000     0          
O        O      0.273293333333     0.092570000000     0.623890000000     0          
O        O      0.000000000000     0.213265000000     0.350500000000     0          
O        O      0.279320000000     0.250000000000     0.354500000000     0          
O        O      0.166666666667     0.212830000000     0.275370000000     0          
O        O      0.208456666667     0.208775000000     0.221740000000     0          
O        O      0.220136666667     0.250000000000     0.269460000000     0          
O        O      0.231136666667     0.191120000000     0.161700000000     0          
O        O      0.298863333333     0.198500000000     0.165380000000     0          
O        O      0.231906666667     0.057295000000     0.140690000000     0          
O        O      0.299036666667     0.048025000000     0.134110000000     0          
O        O      0.220406666667     0.250000000000     0.534440000000     0          
O        O      0.166666666667     0.213240000000     0.527060000000     0          
O        O      0.210753333333     0.205630000000     0.578600000000     0          
O        O      0.219076666667     0.250000000000     0.173700000000     0          
O        O      0.166666666667     0.211630000000     0.168270000000     0          
O        O      0.166666666667     0.039505000000     0.130160000000     0          
O        O      0.217940000000     0.000000000000     0.123750000000     0          
O        O      0.000000000000     0.051980000000     0.404380000000     0          
O        O      0.000000000000     0.214950000000     0.221090000000     0          
O        O      0.000000000000     0.200930000000     0.574690000000     0          
T        Si     0.269996666667     0.427615000000     0.339600000000     0          
T        Si     0.269660000000     0.428115000000     0.467370000000     0          
T        Si     0.206736666667     0.465195000000     0.363240000000     0          
T        Si     0.292096666667     0.388720000000     0.403300000000     0          
T        Si     0.292383333333     0.384590000000     0.281510000000     0          
T        Si     0.206743333333     0.465350000000     0.443550000000     0          
T        Si     0.293640000000     0.383240000000     0.522720000000     0          
T        Si     0.293423333333     0.321535000000     0.426370000000     0          
T        Si     0.268176666667     0.318200000000     0.297790000000     0          
T        Si     0.292350000000     0.382470000000     0.200060000000     0          
T        Si     0.267453333333     0.318535000000     0.500600000000     0          
T        Si     0.293463333333     0.380260000000     0.604360000000     0          
T        Si     0.292596666667     0.284310000000     0.360910000000     0          
T        Si     0.206613333333     0.284135000000     0.262410000000     0          
T        Si     0.268230000000     0.326300000000     0.160770000000     0          
T        Si     0.269713333333     0.426410000000     0.141290000000     0          
T        Si     0.207046666667     0.284515000000     0.538790000000     0          
T        Si     0.206613333333     0.284415000000     0.180990000000     0          
T        Si     0.206913333333     0.464930000000     0.118610000000     0          
O        O      0.276103333333     0.413225000000     0.301870000000     0          
O        O      0.298833333333     0.453785000000     0.345790000000     0          
O        O      0.231586666667     0.442720000000     0.341400000000     0          
O        O      0.274156666667     0.401795000000     0.368750000000     0          
O        O      0.231173333333     0.443080000000     0.466080000000     0          
O        O      0.298790000000     0.454325000000     0.463150000000     0          
O        O      0.275170000000     0.411770000000     0.504130000000     0          
O        O      0.273796666667     0.403915000000     0.436520000000     0          
O        O      0.209746666667     0.456330000000     0.403430000000     0          
O        O      0.286113333333     0.352515000000     0.405460000000     0          
O        O      0.272193333333     0.354490000000     0.294290000000     0          
O        O      0.287526666667     0.389195000000     0.240610000000     0          
O        O      0.293746666667     0.388150000000     0.563840000000     0          
O        O      0.271723333333     0.352990000000     0.513900000000     0          
O        O      0.287766666667     0.292960000000     0.400990000000     0          
O        O      0.267660000000     0.318460000000     0.459070000000     0          
O        O      0.270643333333     0.307860000000     0.337560000000     0          
O        O      0.298780000000     0.301835000000     0.276140000000     0          
O        O      0.230510000000     0.308260000000     0.282890000000     0          
O        O      0.271360000000     0.351825000000     0.190390000000     0          
O        O      0.276773333333     0.410440000000     0.178030000000     0          
O        O      0.230323333333     0.306100000000     0.514350000000     0          
O        O      0.298886666667     0.298040000000     0.515550000000     0          
O        O      0.272753333333     0.348965000000     0.611460000000     0          
O        O      0.273293333333     0.407430000000     0.623890000000     0          
O        O      0.208456666667     0.291225000000     0.221740000000     0          
O        O      0.231136666667     0.308880000000     0.161700000000     0          
O        O      0.298863333333     0.301500000000     0.165380000000     0          
O        O      0.231906666667     0.442705000000     0.140690000000     0          
O        O      0.299036666667     0.451975000000     0.134110000000     0          
O        O      0.210753333333     0.294370000000     0.578600000000     0          
T        Si     0.063336666667     0.072385000000     0.339600000000     0          
T        Si     0.063673333333     0.071885000000     0.467370000000     0          
T        Si     0.126596666667     0.034805000000     0.363240000000     0          
T        Si     0.041236666667     0.111280000000     0.403300000000     0          
T        Si     0.040950000000     0.115410000000     0.281510000000     0          
T        Si     0.126590000000     0.034650000000     0.443550000000     0          
T        Si     0.039693333333     0.116760000000     0.522720000000     0          
T        Si     0.039910000000     0.178465000000     0.426370000000     0          
T        Si     0.065156666667     0.181800000000     0.297790000000     0          
T        Si     0.040983333333     0.117530000000     0.200060000000     0          
T        Si     0.065880000000     0.181465000000     0.500600000000     0          
T        Si     0.039870000000     0.119740000000     0.604360000000     0          
T        Si     0.040736666667     0.215690000000     0.360910000000     0          
T        Si     0.126720000000     0.215865000000     0.262410000000     0          
T        Si     0.065103333333     0.173700000000     0.160770000000     0          
T        Si     0.063620000000     0.073590000000     0.141290000000     0          
T        Si     0.126286666667     0.215485000000     0.538790000000     0          
T        Si     0.126720000000     0.215585000000     0.180990000000     0          
T        Si     0.126420000000     0.035070000000     0.118610000000     0          
O        O      0.057230000000     0.086775000000     0.301870000000     0          
O        O      0.034500000000     0.046215000000     0.345790000000     0          
O        O      0.101746666667     0.057280000000     0.341400000000     0          
O        O      0.059176666667     0.098205000000     0.368750000000     0          
O        O      0.102160000000     0.056920000000     0.466080000000     0          
O        O      0.034543333333     0.045675000000     0.463150000000     0          
O        O      0.058163333333     0.088230000000     0.504130000000     0          
O        O      0.059536666667     0.096085000000     0.436520000000     0          
O        O      0.123586666667     0.043670000000     0.403430000000     0          
O        O      0.047220000000     0.147485000000     0.405460000000     0          
O        O      0.061140000000     0.145510000000     0.294290000000     0          
O        O      0.045806666667     0.110805000000     0.240610000000     0          
O        O      0.039586666667     0.111850000000     0.563840000000     0          
O        O      0.061610000000     0.147010000000     0.513900000000     0          
O        O      0.045566666667     0.207040000000     0.400990000000     0          
O        O      0.065673333333     0.181540000000     0.459070000000     0          
O        O      0.062690000000     0.192140000000     0.337560000000     0          
O        O      0.034553333333     0.198165000000     0.276140000000     0          
O        O      0.102823333333     0.191740000000     0.282890000000     0          
O        O      0.061973333333     0.148175000000     0.190390000000     0          
O        O      0.056560000000     0.089560000000     0.178030000000     0          
O        O      0.103010000000     0.193900000000     0.514350000000     0          
O        O      0.034446666667     0.201960000000     0.515550000000     0          
O        O      0.060580000000     0.151035000000     0.611460000000     0          
O        O      0.060040000000     0.092570000000     0.623890000000     0          
O        O      0.124876666667     0.208775000000     0.221740000000     0          
O        O      0.102196666667     0.191120000000     0.161700000000     0          
O        O      0.034470000000     0.198500000000     0.165380000000     0          
O        O      0.101426666667     0.057295000000     0.140690000000     0          
O        O      0.034296666667     0.048025000000     0.134110000000     0          
O        O      0.122580000000     0.205630000000     0.578600000000     0          
T        Si     0.063336666667     0.677615000000     0.839600000000     0          
T        Si     0.063673333333     0.678115000000     0.967370000000     0          
T        Si     0.126596666667     0.715195000000     0.863240000000     0          
T        Si     0.041236666667     0.638720000000     0.903300000000     0          
T        Si     0.040950000000     0.634590000000     0.781510000000     0          
T        Si     0.126590000000     0.715350000000     0.943550000000     0          
T        Si     0.039693333333     0.633240000000     0.022720000000     0          
T        Si     0.039910000000     0.571535000000     0.926370000000     0          
T        Si     0.065156666667     0.568200000000     0.797790000000     0          
T        Si     0.040983333333     0.632470000000     0.700060000000     0          
T        Si     0.065880000000     0.568535000000     0.000600000000     0          
T        Si     0.039870000000     0.630260000000     0.104360000000     0          
T        Si     0.040736666667     0.534310000000     0.860910000000     0          
T        Si     0.126720000000     0.534135000000     0.762410000000     0          
T        Si     0.065103333333     0.576300000000     0.660770000000     0          
T        Si     0.063620000000     0.676410000000     0.641290000000     0          
T        Si     0.126286666667     0.534515000000     0.038790000000     0          
T        Si     0.126720000000     0.534415000000     0.680990000000     0          
T        Si     0.126420000000     0.714930000000     0.618610000000     0          
T        Si     0.000000000000     0.713730000000     0.866810000000     0          
T        Si     0.000000000000     0.713785000000     0.941920000000     0          
T        Si     0.000000000000     0.534665000000     0.762580000000     0          
T        Si     0.000000000000     0.536535000000     0.035640000000     0          
T        Si     0.000000000000     0.534655000000     0.679630000000     0          
T        Si     0.000000000000     0.713470000000     0.613740000000     0          
O        O      0.057230000000     0.663225000000     0.801870000000     0          
O        O      0.034500000000     0.703785000000     0.845790000000     0          
O        O      0.101746666667     0.692720000000     0.841400000000     0          
O        O      0.059176666667     0.651795000000     0.868750000000     0          
O        O      0.102160000000     0.693080000000     0.966080000000     0          
O        O      0.034543333333     0.704325000000     0.963150000000     0          
O        O      0.058163333333     0.661770000000     0.004130000000     0          
O        O      0.059536666667     0.653915000000     0.936520000000     0          
O        O      0.114683333333     0.750000000000     0.857820000000     0          
O        O      0.166666666667     0.711260000000     0.850950000000     0          
O        O      0.123586666667     0.706330000000     0.903430000000     0          
O        O      0.047220000000     0.602515000000     0.905460000000     0          
O        O      0.000000000000     0.646340000000     0.903210000000     0          
O        O      0.061140000000     0.604490000000     0.794290000000     0          
O        O      0.045806666667     0.639195000000     0.740610000000     0          
O        O      0.000000000000     0.631540000000     0.790790000000     0          
O        O      0.166666666667     0.711975000000     0.955970000000     0          
O        O      0.114030000000     0.750000000000     0.948780000000     0          
O        O      0.039586666667     0.638150000000     0.063840000000     0          
O        O      0.000000000000     0.629790000000     0.009170000000     0          
O        O      0.061610000000     0.602990000000     0.013900000000     0          
O        O      0.045566666667     0.542960000000     0.900990000000     0          
O        O      0.000000000000     0.571585000000     0.939890000000     0          
O        O      0.065673333333     0.568460000000     0.959070000000     0          
O        O      0.062690000000     0.557860000000     0.837560000000     0          
O        O      0.034553333333     0.551835000000     0.776140000000     0          
O        O      0.102823333333     0.558260000000     0.782890000000     0          
O        O      0.061973333333     0.601825000000     0.690390000000     0          
O        O      0.056560000000     0.660440000000     0.678030000000     0          
O        O      0.000000000000     0.628225000000     0.691430000000     0          
O        O      0.103010000000     0.556100000000     0.014350000000     0          
O        O      0.034446666667     0.548040000000     0.015550000000     0          
O        O      0.060580000000     0.598965000000     0.111460000000     0          
O        O      0.000000000000     0.627770000000     0.117760000000     0          
O        O      0.060040000000     0.657430000000     0.123890000000     0          
O        O      0.000000000000     0.536735000000     0.850500000000     0          
O        O      0.054013333333     0.500000000000     0.854500000000     0          
O        O      0.166666666667     0.537170000000     0.775370000000     0          
O        O      0.124876666667     0.541225000000     0.721740000000     0          
O        O      0.113196666667     0.500000000000     0.769460000000     0          
O        O      0.102196666667     0.558880000000     0.661700000000     0          
O        O      0.034470000000     0.551500000000     0.665380000000     0          
O        O      0.101426666667     0.692705000000     0.640690000000     0          
O        O      0.034296666667     0.701975000000     0.634110000000     0          
O        O      0.112926666667     0.500000000000     0.034440000000     0          
O        O      0.166666666667     0.536760000000     0.027060000000     0          
O        O      0.122580000000     0.544370000000     0.078600000000     0          
O        O      0.114256666667     0.500000000000     0.673700000000     0          
O        O      0.166666666667     0.538370000000     0.668270000000     0          
O        O      0.166666666667     0.710495000000     0.630160000000     0          
O        O      0.115393333333     0.750000000000     0.623750000000     0          
O        O      0.000000000000     0.750000000000     0.871910000000     0          
O        O      0.000000000000     0.698020000000     0.904380000000     0          
O        O      0.000000000000     0.750000000000     0.936370000000     0          
O        O      0.000000000000     0.500000000000     0.775950000000     0          
O        O      0.000000000000     0.535050000000     0.721090000000     0          
O        O      0.000000000000     0.500000000000     0.036380000000     0          
O        O      0.000000000000     0.549070000000     0.074690000000     0          
O        O      0.000000000000     0.500000000000     0.666220000000     0          
O        O      0.000000000000     0.750000000000     0.613000000000     0          
T        Si     0.269996666667     0.822385000000     0.839600000000     0          
T        Si     0.269660000000     0.821885000000     0.967370000000     0          
T        Si     0.206736666667     0.784805000000     0.863240000000     0          
T        Si     0.292096666667     0.861280000000     0.903300000000     0          
T        Si     0.292383333333     0.865410000000     0.781510000000     0          
T        Si     0.206743333333     0.784650000000     0.943550000000     0          
T        Si     0.293640000000     0.866760000000     0.022720000000     0          
T        Si     0.293423333333     0.928465000000     0.926370000000     0          
T        Si     0.268176666667     0.931800000000     0.797790000000     0          
T        Si     0.292350000000     0.867530000000     0.700060000000     0          
T        Si     0.267453333333     0.931465000000     0.000600000000     0          
T        Si     0.293463333333     0.869740000000     0.104360000000     0          
T        Si     0.292596666667     0.965690000000     0.860910000000     0          
T        Si     0.206613333333     0.965865000000     0.762410000000     0          
T        Si     0.268230000000     0.923700000000     0.660770000000     0          
T        Si     0.269713333333     0.823590000000     0.641290000000     0          
T        Si     0.207046666667     0.965485000000     0.038790000000     0          
T        Si     0.206613333333     0.965585000000     0.680990000000     0          
T        Si     0.206913333333     0.785070000000     0.618610000000     0          
T        Si     0.000000000000     0.786270000000     0.866810000000     0          
T        Si     0.000000000000     0.786215000000     0.941920000000     0          
T        Si     0.000000000000     0.965335000000     0.762580000000     0          
T        Si     0.000000000000     0.963465000000     0.035640000000     0          
T        Si     0.000000000000     0.965345000000     0.679630000000     0          
T        Si     0.000000000000     0.786530000000     0.613740000000     0          
O        O      0.276103333333     0.836775000000     0.801870000000     0          
O        O      0.298833333333     0.796215000000     0.845790000000     0          
O        O      0.231586666667     0.807280000000     0.841400000000     0          
O        O      0.274156666667     0.848205000000     0.868750000000     0          
O        O      0.231173333333     0.806920000000     0.966080000000     0          
O        O      0.298790000000     0.795675000000     0.963150000000     0          
O        O      0.275170000000     0.838230000000     0.004130000000     0          
O        O      0.273796666667     0.846085000000     0.936520000000     0          
O        O      0.218650000000     0.750000000000     0.857820000000     0          
O        O      0.166666666667     0.788740000000     0.850950000000     0          
O        O      0.209746666667     0.793670000000     0.903430000000     0          
O        O      0.286113333333     0.897485000000     0.905460000000     0          
O        O      0.000000000000     0.853660000000     0.903210000000     0          
O        O      0.272193333333     0.895510000000     0.794290000000     0          
O        O      0.287526666667     0.860805000000     0.740610000000     0          
O        O      0.000000000000     0.868460000000     0.790790000000     0          
O        O      0.166666666667     0.788025000000     0.955970000000     0          
O        O      0.219303333333     0.750000000000     0.948780000000     0          
O        O      0.293746666667     0.861850000000     0.063840000000     0          
O        O      0.000000000000     0.870210000000     0.009170000000     0          
O        O      0.271723333333     0.897010000000     0.013900000000     0          
O        O      0.287766666667     0.957040000000     0.900990000000     0          
O        O      0.000000000000     0.928415000000     0.939890000000     0          
O        O      0.267660000000     0.931540000000     0.959070000000     0          
O        O      0.270643333333     0.942140000000     0.837560000000     0          
O        O      0.298780000000     0.948165000000     0.776140000000     0          
O        O      0.230510000000     0.941740000000     0.782890000000     0          
O        O      0.271360000000     0.898175000000     0.690390000000     0          
O        O      0.276773333333     0.839560000000     0.678030000000     0          
O        O      0.000000000000     0.871775000000     0.691430000000     0          
O        O      0.230323333333     0.943900000000     0.014350000000     0          
O        O      0.298886666667     0.951960000000     0.015550000000     0          
O        O      0.272753333333     0.901035000000     0.111460000000     0          
O        O      0.000000000000     0.872230000000     0.117760000000     0          
O        O      0.273293333333     0.842570000000     0.123890000000     0          
O        O      0.000000000000     0.963265000000     0.850500000000     0          
O        O      0.279320000000     0.500000000000     0.854500000000     0          
O        O      0.166666666667     0.962830000000     0.775370000000     0          
O        O      0.208456666667     0.958775000000     0.721740000000     0          
O        O      0.220136666667     0.500000000000     0.769460000000     0          
O        O      0.231136666667     0.941120000000     0.661700000000     0          
O        O      0.298863333333     0.948500000000     0.665380000000     0          
O        O      0.231906666667     0.807295000000     0.640690000000     0          
O        O      0.299036666667     0.798025000000     0.634110000000     0          
O        O      0.220406666667     0.500000000000     0.034440000000     0          
O        O      0.166666666667     0.963240000000     0.027060000000     0          
O        O      0.210753333333     0.955630000000     0.078600000000     0          
O        O      0.219076666667     0.500000000000     0.673700000000     0          
O        O      0.166666666667     0.961630000000     0.668270000000     0          
O        O      0.166666666667     0.789505000000     0.630160000000     0          
O        O      0.217940000000     0.750000000000     0.623750000000     0          
O        O      0.000000000000     0.801980000000     0.904380000000     0          
O        O      0.000000000000     0.964950000000     0.721090000000     0          
O        O      0.000000000000     0.950930000000     0.074690000000     0          
T        Si     0.269996666667     0.677615000000     0.839600000000     0          
T        Si     0.269660000000     0.678115000000     0.967370000000     0          
T        Si     0.206736666667     0.715195000000     0.863240000000     0          
T        Si     0.292096666667     0.638720000000     0.903300000000     0          
T        Si     0.292383333333     0.634590000000     0.781510000000     0          
T        Si     0.206743333333     0.715350000000     0.943550000000     0          
T        Si     0.293640000000     0.633240000000     0.022720000000     0          
T        Si     0.293423333333     0.571535000000     0.926370000000     0          
T        Si     0.268176666667     0.568200000000     0.797790000000     0          
T        Si     0.292350000000     0.632470000000     0.700060000000     0          
T        Si     0.267453333333     0.568535000000     0.000600000000     0          
T        Si     0.293463333333     0.630260000000     0.104360000000     0          
T        Si     0.292596666667     0.534310000000     0.860910000000     0          
T        Si     0.206613333333     0.534135000000     0.762410000000     0          
T        Si     0.268230000000     0.576300000000     0.660770000000     0          
T        Si     0.269713333333     0.676410000000     0.641290000000     0          
T        Si     0.207046666667     0.534515000000     0.038790000000     0          
T        Si     0.206613333333     0.534415000000     0.680990000000     0          
T        Si     0.206913333333     0.714930000000     0.618610000000     0          
O        O      0.276103333333     0.663225000000     0.801870000000     0          
O        O      0.298833333333     0.703785000000     0.845790000000     0          
O        O      0.231586666667     0.692720000000     0.841400000000     0          
O        O      0.274156666667     0.651795000000     0.868750000000     0          
O        O      0.231173333333     0.693080000000     0.966080000000     0          
O        O      0.298790000000     0.704325000000     0.963150000000     0          
O        O      0.275170000000     0.661770000000     0.004130000000     0          
O        O      0.273796666667     0.653915000000     0.936520000000     0          
O        O      0.209746666667     0.706330000000     0.903430000000     0          
O        O      0.286113333333     0.602515000000     0.905460000000     0          
O        O      0.272193333333     0.604490000000     0.794290000000     0          
O        O      0.287526666667     0.639195000000     0.740610000000     0          
O        O      0.293746666667     0.638150000000     0.063840000000     0          
O        O      0.271723333333     0.602990000000     0.013900000000     0          
O        O      0.287766666667     0.542960000000     0.900990000000     0          
O        O      0.267660000000     0.568460000000     0.959070000000     0          
O        O      0.270643333333     0.557860000000     0.837560000000     0          
O        O      0.298780000000     0.551835000000     0.776140000000     0          
O        O      0.230510000000     0.558260000000     0.782890000000     0          
O        O      0.271360000000     0.601825000000     0.690390000000     0          
O        O      0.276773333333     0.660440000000     0.678030000000     0          
O        O      0.230323333333     0.556100000000     0.014350000000     0          
O        O      0.298886666667     0.548040000000     0.015550000000     0          
O        O      0.272753333333     0.598965000000     0.111460000000     0          
O        O      0.273293333333     0.657430000000     0.123890000000     0          
O        O      0.208456666667     0.541225000000     0.721740000000     0          
O        O      0.231136666667     0.558880000000     0.661700000000     0          
O        O      0.298863333333     0.551500000000     0.665380000000     0          
O        O      0.231906666667     0.692705000000     0.640690000000     0          
O        O      0.299036666667     0.701975000000     0.634110000000     0          
O        O      0.210753333333     0.544370000000     0.078600000000     0          
T        Si     0.063336666667     0.822385000000     0.839600000000     0          
T        Si     0.063673333333     0.821885000000     0.967370000000     0          
T        Si     0.126596666667     0.784805000000     0.863240000000     0          
T        Si     0.041236666667     0.861280000000     0.903300000000     0          
T        Si     0.040950000000     0.865410000000     0.781510000000     0          
T        Si     0.126590000000     0.784650000000     0.943550000000     0          
T        Si     0.039693333333     0.866760000000     0.022720000000     0          
T        Si     0.039910000000     0.928465000000     0.926370000000     0          
T        Si     0.065156666667     0.931800000000     0.797790000000     0          
T        Si     0.040983333333     0.867530000000     0.700060000000     0          
T        Si     0.065880000000     0.931465000000     0.000600000000     0          
T        Si     0.039870000000     0.869740000000     0.104360000000     0          
T        Si     0.040736666667     0.965690000000     0.860910000000     0          
T        Si     0.126720000000     0.965865000000     0.762410000000     0          
T        Si     0.065103333333     0.923700000000     0.660770000000     0          
T        Si     0.063620000000     0.823590000000     0.641290000000     0          
T        Si     0.126286666667     0.965485000000     0.038790000000     0          
T        Si     0.126720000000     0.965585000000     0.680990000000     0          
T        Si     0.126420000000     0.785070000000     0.618610000000     0          
O        O      0.057230000000     0.836775000000     0.801870000000     0          
O        O      0.034500000000     0.796215000000     0.845790000000     0          
O        O      0.101746666667     0.807280000000     0.841400000000     0          
O        O      0.059176666667     0.848205000000     0.868750000000     0          
O        O      0.102160000000     0.806920000000     0.966080000000     0          
O        O      0.034543333333     0.795675000000     0.963150000000     0          
O        O      0.058163333333     0.838230000000     0.004130000000     0          
O        O      0.059536666667     0.846085000000     0.936520000000     0          
O        O      0.123586666667     0.793670000000     0.903430000000     0          
O        O      0.047220000000     0.897485000000     0.905460000000     0          
O        O      0.061140000000     0.895510000000     0.794290000000     0          
O        O      0.045806666667     0.860805000000     0.740610000000     0          
O        O      0.039586666667     0.861850000000     0.063840000000     0          
O        O      0.061610000000     0.897010000000     0.013900000000     0          
O        O      0.045566666667     0.957040000000     0.900990000000     0          
O        O      0.065673333333     0.931540000000     0.959070000000     0          
O        O      0.062690000000     0.942140000000     0.837560000000     0          
O        O      0.034553333333     0.948165000000     0.776140000000     0          
O        O      0.102823333333     0.941740000000     0.782890000000     0          
O        O      0.061973333333     0.898175000000     0.690390000000     0          
O        O      0.056560000000     0.839560000000     0.678030000000     0          
O        O      0.103010000000     0.943900000000     0.014350000000     0          
O        O      0.034446666667     0.951960000000     0.015550000000     0          
O        O      0.060580000000     0.901035000000     0.111460000000     0          
O        O      0.060040000000     0.842570000000     0.123890000000     0          
O        O      0.124876666667     0.958775000000     0.721740000000     0          
O        O      0.102196666667     0.941120000000     0.661700000000     0          
O        O      0.034470000000     0.948500000000     0.665380000000     0          
O        O      0.101426666667     0.807295000000     0.640690000000     0          
O        O      0.034296666667     0.798025000000     0.634110000000     0          
O        O      0.122580000000     0.955630000000     0.078600000000     0          
T        Si     0.063336666667     0.927615000000     0.339600000000     0          
T        Si     0.063673333333     0.928115000000     0.467370000000     0          
T        Si     0.126596666667     0.965195000000     0.363240000000     0          
T        Si     0.041236666667     0.888720000000     0.403300000000     0          
T        Si     0.040950000000     0.884590000000     0.281510000000     0          
T        Si     0.126590000000     0.965350000000     0.443550000000     0          
T        Si     0.039693333333     0.883240000000     0.522720000000     0          
T        Si     0.039910000000     0.821535000000     0.426370000000     0          
T        Si     0.065156666667     0.818200000000     0.297790000000     0          
T        Si     0.040983333333     0.882470000000     0.200060000000     0          
T        Si     0.065880000000     0.818535000000     0.500600000000     0          
T        Si     0.039870000000     0.880260000000     0.604360000000     0          
T        Si     0.040736666667     0.784310000000     0.360910000000     0          
T        Si     0.126720000000     0.784135000000     0.262410000000     0          
T        Si     0.065103333333     0.826300000000     0.160770000000     0          
T        Si     0.063620000000     0.926410000000     0.141290000000     0          
T        Si     0.126286666667     0.784515000000     0.538790000000     0          
T        Si     0.126720000000     0.784415000000     0.180990000000     0          
T        Si     0.126420000000     0.964930000000     0.118610000000     0          
T        Si     0.000000000000     0.963730000000     0.366810000000     0          
T        Si     0.000000000000     0.963785000000     0.441920000000     0          
T        Si     0.000000000000     0.784665000000     0.262580000000     0          
T        Si     0.000000000000     0.786535000000     0.535640000000     0          
T        Si     0.000000000000     0.784655000000     0.179630000000     0          
T        Si     0.000000000000     0.963470000000     0.113740000000     0          
O        O      0.057230000000     0.913225000000     0.301870000000     0          
O        O      0.034500000000     0.953785000000     0.345790000000     0          
O        O      0.101746666667     0.942720000000     0.341400000000     0          
O        O      0.059176666667     0.901795000000     0.368750000000     0          
O        O      0.102160000000     0.943080000000     0.466080000000     0          
O        O      0.034543333333     0.954325000000     0.463150000000     0          
O        O      0.058163333333     0.911770000000     0.504130000000     0          
O        O      0.059536666667     0.903915000000     0.436520000000     0          
O        O      0.114683333333     0.500000000000     0.357820000000     0          
O        O      0.166666666667     0.961260000000     0.350950000000     0          
O        O      0.123586666667     0.956330000000     0.403430000000     0          
O        O      0.047220000000     0.852515000000     0.405460000000     0          
O        O      0.000000000000     0.896340000000     0.403210000000     0          
O        O      0.061140000000     0.854490000000     0.294290000000     0          
O        O      0.045806666667     0.889195000000     0.240610000000     0          
O        O      0.000000000000     0.881540000000     0.290790000000     0          
O        O      0.166666666667     0.961975000000     0.455970000000     0          
O        O      0.114030000000     0.500000000000     0.448780000000     0          
O        O      0.039586666667     0.888150000000     0.563840000000     0          
O        O      0.000000000000     0.879790000000     0.509170000000     0          
O        O      0.061610000000     0.852990000000     0.513900000000     0          
O        O      0.045566666667     0.792960000000     0.400990000000     0          
O        O      0.000000000000     0.821585000000     0.439890000000     0          
O        O      0.065673333333     0.818460000000     0.459070000000     0          
O        O      0.062690000000     0.807860000000     0.337560000000     0          
O        O      0.034553333333     0.801835000000     0.276140000000     0          
O        O      0.102823333333     0.808260000000     0.282890000000     0          
O        O      0.061973333333     0.851825000000     0.190390000000     0          
O        O      0.056560000000     0.910440000000     0.178030000000     0          
O        O      0.000000000000     0.878225000000     0.191430000000     0          
O        O      0.103010000000     0.806100000000     0.514350000000     0          
O        O      0.034446666667     0.798040000000     0.515550000000     0          
O        O      0.060580000000     0.848965000000     0.611460000000     0          
O        O      0.000000000000     0.877770000000     0.617760000000     0          
O        O      0.060040000000     0.907430000000     0.623890000000     0          
O        O      0.000000000000     0.786735000000     0.350500000000     0          
O        O      0.054013333333     0.750000000000     0.354500000000     0          
O        O      0.166666666667     0.787170000000     0.275370000000     0          
O        O      0.124876666667     0.791225000000     0.221740000000     0          
O        O      0.113196666667     0.750000000000     0.269460000000     0          
O        O      0.102196666667     0.808880000000     0.161700000000     0          
O        O      0.034470000000     0.801500000000     0.165380000000     0          
O        O      0.101426666667     0.942705000000     0.140690000000     0          
O        O      0.034296666667     0.951975000000     0.134110000000     0          
O        O      0.112926666667     0.750000000000     0.534440000000     0          
O        O      0.166666666667     0.786760000000     0.527060000000     0          
O        O      0.122580000000     0.794370000000     0.578600000000     0          
O        O      0.114256666667     0.750000000000     0.173700000000     0          
O        O      0.166666666667     0.788370000000     0.168270000000     0          
O        O      0.166666666667     0.960495000000     0.130160000000     0          
O        O      0.115393333333     0.500000000000     0.123750000000     0          
O        O      0.000000000000     0.500000000000     0.371910000000     0          
O        O      0.000000000000     0.948020000000     0.404380000000     0          
O        O      0.000000000000     0.500000000000     0.436370000000     0          
O        O      0.000000000000     0.750000000000     0.275950000000     0          
O        O      0.000000000000     0.785050000000     0.221090000000     0          
O        O      0.000000000000     0.750000000000     0.536380000000     0          
O        O      0.000000000000     0.799070000000     0.574690000000     0          
O        O      0.000000000000     0.750000000000     0.166220000000     0          
O        O      0.000000000000     0.500000000000     0.113000000000     0          
T        Si     0.269996666667     0.572385000000     0.339600000000     0          
T        Si     0.269660000000     0.571885000000     0.467370000000     0          
T        Si     0.206736666667     0.534805000000     0.363240000000     0          
T        Si     0.292096666667     0.611280000000     0.403300000000     0          
T        Si     0.292383333333     0.615410000000     0.281510000000     0          
T        Si     0.206743333333     0.534650000000     0.443550000000     0          
T        Si     0.293640000000     0.616760000000     0.522720000000     0          
T        Si     0.293423333333     0.678465000000     0.426370000000     0          
T        Si     0.268176666667     0.681800000000     0.297790000000     0          
T        Si     0.292350000000     0.617530000000     0.200060000000     0          
T        Si     0.267453333333     0.681465000000     0.500600000000     0          
T        Si     0.293463333333     0.619740000000     0.604360000000     0          
T        Si     0.292596666667     0.715690000000     0.360910000000     0          
T        Si     0.206613333333     0.715865000000     0.262410000000     0          
T        Si     0.268230000000     0.673700000000     0.160770000000     0          
T        Si     0.269713333333     0.573590000000     0.141290000000     0          
T        Si     0.207046666667     0.715485000000     0.538790000000     0          
T        Si     0.206613333333     0.715585000000     0.180990000000     0          
T        Si     0.206913333333     0.535070000000     0.118610000000     0          
T        Si     0.000000000000     0.536270000000     0.366810000000     0          
T        Si     0.000000000000     0.536215000000     0.441920000000     0          
T        Si     0.000000000000     0.715335000000     0.262580000000     0          
T        Si     0.000000000000     0.713465000000     0.535640000000     0          
T        Si     0.000000000000     0.715345000000     0.179630000000     0          
T        Si     0.000000000000     0.536530000000     0.113740000000     0          
O        O      0.276103333333     0.586775000000     0.301870000000     0          
O        O      0.298833333333     0.546215000000     0.345790000000     0          
O        O      0.231586666667     0.557280000000     0.341400000000     0          
O        O      0.274156666667     0.598205000000     0.368750000000     0          
O        O      0.231173333333     0.556920000000     0.466080000000     0          
O        O      0.298790000000     0.545675000000     0.463150000000     0          
O        O      0.275170000000     0.588230000000     0.504130000000     0          
O        O      0.273796666667     0.596085000000     0.436520000000     0          
O        O      0.218650000000     0.500000000000     0.357820000000     0          
O        O      0.166666666667     0.538740000000     0.350950000000     0          
O        O      0.209746666667     0.543670000000     0.403430000000     0          
O        O      0.286113333333     0.647485000000     0.405460000000     0          
O        O      0.000000000000     0.603660000000     0.403210000000     0          
O        O      0.272193333333     0.645510000000     0.294290000000     0          
O        O      0.287526666667     0.610805000000     0.240610000000     0          
O        O      0.000000000000     0.618460000000     0.290790000000     0          
O        O      0.166666666667     0.538025000000     0.455970000000     0          
O        O      0.219303333333     0.500000000000     0.448780000000     0          
O        O      0.293746666667     0.611850000000     0.563840000000     0          
O        O      0.000000000000     0.620210000000     0.509170000000     0          
O        O      0.271723333333     0.647010000000     0.513900000000     0          
O        O      0.287766666667     0.707040000000     0.400990000000     0          
O        O      0.000000000000     0.678415000000     0.439890000000     0          
O        O      0.267660000000     0.681540000000     0.459070000000     0          
O        O      0.270643333333     0.692140000000     0.337560000000     0          
O        O      0.298780000000     0.698165000000     0.276140000000     0          
O        O      0.230510000000     0.691740000000     0.282890000000     0          
O        O      0.271360000000     0.648175000000     0.190390000000     0          
O        O      0.276773333333     0.589560000000     0.178030000000     0          
O        O      0.000000000000     0.621775000000     0.191430000000     0          
O        O      0.230323333333     0.693900000000     0.514350000000     0          
O        O      0.298886666667     0.701960000000     0.515550000000     0          
O        O      0.272753333333     0.651035000000     0.611460000000     0          
O        O      0.000000000000     0.622230000000     0.617760000000     0          
O        O      0.273293333333     0.592570000000     0.623890000000     0          
O        O      0.000000000000     0.713265000000     0.350500000000     0          
O        O      0.279320000000     0.750000000000     0.354500000000     0          
O        O      0.166666666667     0.712830000000     0.275370000000     0          
O        O      0.208456666667     0.708775000000     0.221740000000     0          
O        O      0.220136666667     0.750000000000     0.269460000000     0          
O        O      0.231136666667     0.691120000000     0.161700000000     0          
O        O      0.298863333333     0.698500000000     0.165380000000     0          
O        O      0.231906666667     0.557295000000     0.140690000000     0          
O        O      0.299036666667     0.548025000000     0.134110000000     0          
O        O      0.220406666667     0.750000000000     0.534440000000     0          
O        O      0.166666666667     0.713240000000     0.527060000000     0          
O        O      0.210753333333     0.705630000000     0.578600000000     0          
O        O      0.219076666667     0.750000000000     0.173700000000     0          
O        O      0.166666666667     0.711630000000     0.168270000000     0          
O        O      0.166666666667     0.539505000000     0.130160000000     0          
O        O      0.217940000000     0.500000000000     0.123750000000     0          
O        O      0.000000000000     0.551980000000     0.404380000000     0          
O        O      0.000000000000     0.714950000000     0.221090000000     0          
O        O      0.000000000000     0.700930000000     0.574690000000     0          
T        Si     0.269996666667     0.927615000000     0.339600000000     0          
T        Si     0.269660000000     0.928115000000     0.467370000000     0          
T        Si     0.206736666667     0.965195000000     0.363240000000     0          
T        Si     0.292096666667     0.888720000000     0.403300000000     0          
T        Si     0.292383333333     0.884590000000     0.281510000000     0          
T        Si     0.206743333333     0.965350000000     0.443550000000     0          
T        Si     0.293640000000     0.883240000000     0.522720000000     0          
T        Si     0.293423333333     0.821535000000     0.426370000000     0          
T        Si     0.268176666667     0.818200000000     0.297790000000     0          
T        Si     0.292350000000     0.882470000000     0.200060000000     0          
T        Si     0.267453333333     0.818535000000     0.500600000000     0          
T        Si     0.293463333333     0.880260000000     0.604360000000     0          
T        Si     0.292596666667     0.784310000000     0.360910000000     0          
T        Si     0.206613333333     0.784135000000     0.262410000000     0          
T        Si     0.268230000000     0.826300000000     0.160770000000     0          
T        Si     0.269713333333     0.926410000000     0.141290000000     0          
T        Si     0.207046666667     0.784515000000     0.538790000000     0          
T        Si     0.206613333333     0.784415000000     0.180990000000     0          
T        Si     0.206913333333     0.964930000000     0.118610000000     0          
O        O      0.276103333333     0.913225000000     0.301870000000     0          
O        O      0.298833333333     0.953785000000     0.345790000000     0          
O        O      0.231586666667     0.942720000000     0.341400000000     0          
O        O      0.274156666667     0.901795000000     0.368750000000     0          
O        O      0.231173333333     0.943080000000     0.466080000000     0          
O        O      0.298790000000     0.954325000000     0.463150000000     0          
O        O      0.275170000000     0.911770000000     0.504130000000     0          
O        O      0.273796666667     0.903915000000     0.436520000000     0          
O        O      0.209746666667     0.956330000000     0.403430000000     0          
O        O      0.286113333333     0.852515000000     0.405460000000     0          
O        O      0.272193333333     0.854490000000     0.294290000000     0          
O        O      0.287526666667     0.889195000000     0.240610000000     0          
O        O      0.293746666667     0.888150000000     0.563840000000     0          
O        O      0.271723333333     0.852990000000     0.513900000000     0          
O        O      0.287766666667     0.792960000000     0.400990000000     0          
O        O      0.267660000000     0.818460000000     0.459070000000     0          
O        O      0.270643333333     0.807860000000     0.337560000000     0          
O        O      0.298780000000     0.801835000000     0.276140000000     0          
O        O      0.230510000000     0.808260000000     0.282890000000     0          
O        O      0.271360000000     0.851825000000     0.190390000000     0          
O        O      0.276773333333     0.910440000000     0.178030000000     0          
O        O      0.230323333333     0.806100000000     0.514350000000     0          
O        O      0.298886666667     0.798040000000     0.515550000000     0          
O        O      0.272753333333     0.848965000000     0.611460000000     0          
O        O      0.273293333333     0.907430000000     0.623890000000     0          
O        O      0.208456666667     0.791225000000     0.221740000000     0          
O        O      0.231136666667     0.808880000000     0.161700000000     0          
O        O      0.298863333333     0.801500000000     0.165380000000     0          
O        O      0.231906666667     0.942705000000     0.140690000000     0          
O        O      0.299036666667     0.951975000000     0.134110000000     0          
O        O      0.210753333333     0.794370000000     0.578600000000     0          
T        Si     0.063336666667     0.572385000000     0.339600000000     0          
T        Si     0.063673333333     0.571885000000     0.467370000000     0          
T        Si     0.126596666667     0.534805000000     0.363240000000     0          
T        Si     0.041236666667     0.611280000000     0.403300000000     0          
T        Si     0.040950000000     0.615410000000     0.281510000000     0          
T        Si     0.126590000000     0.534650000000     0.443550000000     0          
T        Si     0.039693333333     0.616760000000     0.522720000000     0          
T        Si     0.039910000000     0.678465000000     0.426370000000     0          
T        Si     0.065156666667     0.681800000000     0.297790000000     0          
T        Si     0.040983333333     0.617530000000     0.200060000000     0          
T        Si     0.065880000000     0.681465000000     0.500600000000     0          
T        Si     0.039870000000     0.619740000000     0.604360000000     0          
T        Si     0.040736666667     0.715690000000     0.360910000000     0          
T        Si     0.126720000000     0.715865000000     0.262410000000     0          
T        Si     0.065103333333     0.673700000000     0.160770000000     0          
T        Si     0.063620000000     0.573590000000     0.141290000000     0          
T        Si     0.126286666667     0.715485000000     0.538790000000     0          
T        Si     0.126720000000     0.715585000000     0.180990000000     0          
T        Si     0.126420000000     0.535070000000     0.118610000000     0          
O        O      0.057230000000     0.586775000000     0.301870000000     0          
O        O      0.034500000000     0.546215000000     0.345790000000     0          
O        O      0.101746666667     0.557280000000     0.341400000000     0          
O        O      0.059176666667     0.598205000000     0.368750000000     0          
O        O      0.102160000000     0.556920000000     0.466080000000     0          
O        O      0.034543333333     0.545675000000     0.463150000000     0          
O        O      0.058163333333     0.588230000000     0.504130000000     0          
O        O      0.059536666667     0.596085000000     0.436520000000     0          
O        O      0.123586666667     0.543670000000     0.403430000000     0          
O        O      0.047220000000     0.647485000000     0.405460000000     0          
O        O      0.061140000000     0.645510000000     0.294290000000     0          
O        O      0.045806666667     0.610805000000     0.240610000000     0          
O        O      0.039586666667     0.611850000000     0.563840000000     0          
O        O      0.061610000000     0.647010000000     0.513900000000     0          
O        O      0.045566666667     0.707040000000     0.400990000000     0          
O        O      0.065673333333     0.681540000000     0.459070000000     0          
O        O      0.062690000000     0.692140000000     0.337560000000     0          
O        O      0.034553333333     0.698165000000     0.276140000000     0          
O        O      0.102823333333     0.691740000000     0.282890000000     0          
O        O      0.061973333333     0.648175000000     0.190390000000     0          
O        O      0.056560000000     0.589560000000     0.178030000000     0          
O        O      0.103010000000     0.693900000000     0.514350000000     0          
O        O      0.034446666667     0.701960000000     0.515550000000     0          
O        O      0.060580000000     0.651035000000     0.611460000000     0          
O        O      0.060040000000     0.592570000000     0.623890000000     0          
O        O      0.124876666667     0.708775000000     0.221740000000     0          
O        O      0.102196666667     0.691120000000     0.161700000000     0          
O        O      0.034470000000     0.698500000000     0.165380000000     0          
O        O      0.101426666667     0.557295000000     0.140690000000     0          
O        O      0.034296666667     0.548025000000     0.134110000000     0          
O        O      0.122580000000     0.705630000000     0.578600000000     0          
T        Si     0.396670000000     0.177615000000     0.839600000000     0          
T        Si     0.397006666667     0.178115000000     0.967370000000     0          
T        Si     0.459930000000     0.215195000000     0.863240000000     0          
T        Si     0.374570000000     0.138720000000     0.903300000000     0          
T        Si     0.374283333333     0.134590000000     0.781510000000     0          
T        Si     0.459923333333     0.215350000000     0.943550000000     0          
T        Si     0.373026666667     0.133240000000     0.022720000000     0          
T        Si     0.373243333333     0.071535000000     0.926370000000     0          
T        Si     0.398490000000     0.068200000000     0.797790000000     0          
T        Si     0.374316666667     0.132470000000     0.700060000000     0          
T        Si     0.399213333333     0.068535000000     0.000600000000     0          
T        Si     0.373203333333     0.130260000000     0.104360000000     0          
T        Si     0.374070000000     0.034310000000     0.860910000000     0          
T        Si     0.460053333333     0.034135000000     0.762410000000     0          
T        Si     0.398436666667     0.076300000000     0.660770000000     0          
T        Si     0.396953333333     0.176410000000     0.641290000000     0          
T        Si     0.459620000000     0.034515000000     0.038790000000     0          
T        Si     0.460053333333     0.034415000000     0.680990000000     0          
T        Si     0.459753333333     0.214930000000     0.618610000000     0          
T        Si     0.333333333333     0.213730000000     0.866810000000     0          
T        Si     0.333333333333     0.213785000000     0.941920000000     0          
T        Si     0.333333333333     0.034665000000     0.762580000000     0          
T        Si     0.333333333333     0.036535000000     0.035640000000     0          
T        Si     0.333333333333     0.034655000000     0.679630000000     0          
T        Si     0.333333333333     0.213470000000     0.613740000000     0          
O        O      0.390563333333     0.163225000000     0.801870000000     0          
O        O      0.367833333333     0.203785000000     0.845790000000     0          
O        O      0.435080000000     0.192720000000     0.841400000000     0          
O        O      0.392510000000     0.151795000000     0.868750000000     0          
O        O      0.435493333333     0.193080000000     0.966080000000     0          
O        O      0.367876666667     0.204325000000     0.963150000000     0          
O        O      0.391496666667     0.161770000000     0.004130000000     0          
O        O      0.392870000000     0.153915000000     0.936520000000     0          
O        O      0.448016666667     0.250000000000     0.857820000000     0          
O        O      0.500000000000     0.211260000000     0.850950000000     0          
O        O      0.456920000000     0.206330000000     0.903430000000     0          
O        O      0.380553333333     0.102515000000     0.905460000000     0          
O        O      0.333333333333     0.146340000000     0.903210000000     0          
O        O      0.394473333333     0.104490000000     0.794290000000     0          
O        O      0.379140000000     0.139195000000     0.740610000000     0          
O        O      0.333333333333     0.131540000000     0.790790000000     0          
O        O      0.500000000000     0.211975000000     0.955970000000     0          
O        O      0.447363333333     0.250000000000     0.948780000000     0          
O        O      0.372920000000     0.138150000000     0.063840000000     0          
O        O      0.333333333333     0.129790000000     0.009170000000     0          
O        O      0.394943333333     0.102990000000     0.013900000000     0          
O        O      0.378900000000     0.042960000000     0.900990000000     0          
O        O      0.333333333333     0.071585000000     0.939890000000     0          
O        O      0.399006666667     0.068460000000     0.959070000000     0          
O        O      0.396023333333     0.057860000000     0.837560000000     0          
O        O      0.367886666667     0.051835000000     0.776140000000     0          
O        O      0.436156666667     0.058260000000     0.782890000000     0          
O        O      0.395306666667     0.101825000000     0.690390000000     0          
O        O      0.389893333333     0.160440000000     0.678030000000     0          
O        O      0.333333333333     0.128225000000     0.691430000000     0          
O        O      0.436343333333     0.056100000000     0.014350000000     0          
O        O      0.367780000000     0.048040000000     0.015550000000     0          
O        O      0.393913333333     0.098965000000     0.111460000000     0          
O        O      0.333333333333     0.127770000000     0.117760000000     0          
O        O      0.393373333333     0.157430000000     0.123890000000     0          
O        O      0.333333333333     0.036735000000     0.850500000000     0          
O        O      0.387346666667     0.000000000000     0.854500000000     0          
O        O      0.500000000000     0.037170000000     0.775370000000     0          
O        O      0.458210000000     0.041225000000     0.721740000000     0          
O        O      0.446530000000     0.000000000000     0.769460000000     0          
O        O      0.435530000000     0.058880000000     0.661700000000     0          
O        O      0.367803333333     0.051500000000     0.665380000000     0          
O        O      0.434760000000     0.192705000000     0.640690000000     0          
O        O      0.367630000000     0.201975000000     0.634110000000     0          
O        O      0.446260000000     0.000000000000     0.034440000000     0          
O        O      0.500000000000     0.036760000000     0.027060000000     0          
O        O      0.455913333333     0.044370000000     0.078600000000     0          
O        O      0.447590000000     0.000000000000     0.673700000000     0          
O        O      0.500000000000     0.038370000000     0.668270000000     0          
O        O      0.500000000000     0.210495000000     0.630160000000     0          
O        O      0.448726666667     0.250000000000     0.623750000000     0          
O        O      0.333333333333     0.250000000000     0.871910000000     0          
O        O      0.333333333333     0.198020000000     0.904380000000     0          
O        O      0.333333333333     0.250000000000     0.936370000000     0          
O        O      0.333333333333     0.000000000000     0.775950000000     0          
O        O      0.333333333333     0.035050000000     0.721090000000     0          
O        O      0.333333333333     0.000000000000     0.036380000000     0          
O        O      0.333333333333     0.049070000000     0.074690000000     0          
O        O      0.333333333333     0.000000000000     0.666220000000     0          
O        O      0.333333333333     0.250000000000     0.613000000000     0          
T        Si     0.603330000000     0.322385000000     0.839600000000     0          
T        Si     0.602993333333     0.321885000000     0.967370000000     0          
T        Si     0.540070000000     0.284805000000     0.863240000000     0          
T        Si     0.625430000000     0.361280000000     0.903300000000     0          
T        Si     0.625716666667     0.365410000000     0.781510000000     0          
T        Si     0.540076666667     0.284650000000     0.943550000000     0          
T        Si     0.626973333333     0.366760000000     0.022720000000     0          
T        Si     0.626756666667     0.428465000000     0.926370000000     0          
T        Si     0.601510000000     0.431800000000     0.797790000000     0          
T        Si     0.625683333333     0.367530000000     0.700060000000     0          
T        Si     0.600786666667     0.431465000000     0.000600000000     0          
T        Si     0.626796666667     0.369740000000     0.104360000000     0          
T        Si     0.625930000000     0.465690000000     0.860910000000     0          
T        Si     0.539946666667     0.465865000000     0.762410000000     0          
T        Si     0.601563333333     0.423700000000     0.660770000000     0          
T        Si     0.603046666667     0.323590000000     0.641290000000     0          
T        Si     0.540380000000     0.465485000000     0.038790000000     0          
T        Si     0.539946666667     0.465585000000     0.680990000000     0          
T        Si     0.540246666667     0.285070000000     0.618610000000     0          
T        Si     0.333333333333     0.286270000000     0.866810000000     0          
T        Si     0.333333333333     0.286215000000     0.941920000000     0          
T        Si     0.333333333333     0.465335000000     0.762580000000     0          
T        Si     0.333333333333     0.463465000000     0.035640000000     0          
T        Si     0.333333333333     0.465345000000     0.679630000000     0          
T        Si     0.333333333333     0.286530000000     0.613740000000     0          
O        O      0.609436666667     0.336775000000     0.801870000000     0          
O        O      0.632166666667     0.296215000000     0.845790000000     0          
O        O      0.564920000000     0.307280000000     0.841400000000     0          
O        O      0.607490000000     0.348205000000     0.868750000000     0          
O        O      0.564506666667     0.306920000000     0.966080000000     0          
O        O      0.632123333333     0.295675000000     0.963150000000     0          
O        O      0.608503333333     0.338230000000     0.004130000000     0          
O        O      0.607130000000     0.346085000000     0.936520000000     0          
O        O      0.551983333333     0.250000000000     0.857820000000     0          
O        O      0.500000000000     0.288740000000     0.850950000000     0          
O        O      0.543080000000     0.293670000000     0.903430000000     0          
O        O      0.619446666667     0.397485000000     0.905460000000     0          
O        O      0.333333333333     0.353660000000     0.903210000000     0          
O        O      0.605526666667     0.395510000000     0.794290000000     0          
O        O      0.620860000000     0.360805000000     0.740610000000     0          
O        O      0.333333333333     0.368460000000     0.790790000000     0          
O        O      0.500000000000     0.288025000000     0.955970000000     0          
O        O      0.552636666667     0.250000000000     0.948780000000     0          
O        O      0.627080000000     0.361850000000     0.063840000000     0          
O        O      0.333333333333     0.370210000000     0.009170000000     0          
O        O      0.605056666667     0.397010000000     0.013900000000     0          
O        O      0.621100000000     0.457040000000     0.900990000000     0          
O        O      0.333333333333     0.428415000000     0.939890000000     0          
O        O      0.600993333333     0.431540000000     0.959070000000     0          
O        O      0.603976666667     0.442140000000     0.837560000000     0          
O        O      0.632113333333     0.448165000000     0.776140000000     0          
O        O      0.563843333333     0.441740000000     0.782890000000     0          
O        O      0.604693333333     0.398175000000     0.690390000000     0          
O        O      0.610106666667     0.339560000000     0.678030000000     0          
O        O      0.333333333333     0.371775000000     0.691430000000     0          
O        O      0.563656666667     0.443900000000     0.014350000000     0          
O        O      0.632220000000     0.451960000000     0.015550000000     0          
O        O      0.606086666667     0.401035000000     0.111460000000     0          
O        O      0.333333333333     0.372230000000     0.117760000000     0          
O        O      0.606626666667     0.342570000000     0.123890000000     0          
O        O      0.333333333333     0.463265000000     0.850500000000     0          
O        O      0.612653333333     0.000000000000     0.854500000000     0          
O        O      0.500000000000     0.462830000000     0.775370000000     0          
O        O      0.541790000000     0.458775000000     0.721740000000     0          
O        O      0.553470000000     0.000000000000     0.769460000000     0          
O        O      0.564470000000     0.441120000000     0.661700000000     0          
O        O      0.632196666667     0.448500000000     0.665380000000     0          
O        O      0.565240000000     0.307295000000     0.640690000000     0          
O        O      0.632370000000     0.298025000000     0.634110000000     0          
O        O      0.553740000000     0.000000000000     0.034440000000     0          
O        O      0.500000000000     0.463240000000     0.027060000000     0          
O        O      0.544086666667     0.455630000000     0.078600000000     0          
O        O      0.552410000000     0.000000000000     0.673700000000     0          
O        O      0.500000000000     0.461630000000     0.668270000000     0          
O        O      0.500000000000     0.289505000000     0.630160000000     0          
O        O      0.551273333333     0.250000000000     0.623750000000     0          
O        O      0.333333333333     0.301980000000     0.904380000000     0          
O        O      0.333333333333     0.464950000000     0.721090000000     0          
O        O      0.333333333333     0.450930000000     0.074690000000     0          
T        Si     0.603330000000     0.177615000000     0.839600000000     0          
T        Si     0.602993333333     0.178115000000     0.967370000000     0          
T        Si     0.540070000000     0.215195000000     0.863240000000     0          
T        Si     0.625430000000     0.138720000000     0.903300000000     0          
T        Si     0.625716666667     0.134590000000     0.781510000000     0          
T        Si     0.540076666667     0.215350000000     0.943550000000     0          
T        Si     0.626973333333     0.133240000000     0.022720000000     0          
T        Si     0.626756666667     0.071535000000     0.926370000000     0          
T        Si     0.601510000000     0.068200000000     0.797790000000     0          
T        Si     0.625683333333     0.132470000000     0.700060000000     0          
T        Si     0.600786666667     0.068535000000     0.000600000000     0          
T        Si     0.626796666667     0.130260000000     0.104360000000     0          
T        Si     0.625930000000     0.034310000000     0.860910000000     0          
T        Si     0.539946666667     0.034135000000     0.762410000000     0          
T        Si     0.601563333333     0.076300000000     0.660770000000     0          
T        Si     0.603046666667     0.176410000000     0.641290000000     0          
T        Si     0.540380000000     0.034515000000     0.038790000000     0          
T        Si     0.539946666667     0.034415000000     0.680990000000     0          
T        Si     0.540246666667     0.214930000000     0.618610000000     0          
O        O      0.609436666667     0.163225000000     0.801870000000     0          
O        O      0.632166666667     0.203785000000     0.845790000000     0          
O        O      0.564920000000     0.192720000000     0.841400000000     0          
O        O      0.607490000000     0.151795000000     0.868750000000     0          
O        O      0.564506666667     0.193080000000     0.966080000000     0          
O        O      0.632123333333     0.204325000000     0.963150000000     0          
O        O      0.608503333333     0.161770000000     0.004130000000     0          
O        O      0.607130000000     0.153915000000     0.936520000000     0          
O        O      0.543080000000     0.206330000000     0.903430000000     0          
O        O      0.619446666667     0.102515000000     0.905460000000     0          
O        O      0.605526666667     0.104490000000     0.794290000000     0          
O        O      0.620860000000     0.139195000000     0.740610000000     0          
O        O      0.627080000000     0.138150000000     0.063840000000     0          
O        O      0.605056666667     0.102990000000     0.013900000000     0          
O        O      0.621100000000     0.042960000000     0.900990000000     0          
O        O      0.600993333333     0.068460000000     0.959070000000     0          
O        O      0.603976666667     0.057860000000     0.837560000000     0          
O        O      0.632113333333     0.051835000000     0.776140000000     0          
O        O      0.563843333333     0.058260000000     0.782890000000     0          
O        O      0.604693333333     0.101825000000     0.690390000000     0          
O        O      0.610106666667     0.160440000000     0.678030000000     0          
O        O      0.563656666667     0.056100000000     0.014350000000     0          
O        O      0.632220000000     0.048040000000     0.015550000000     0          
O        O      0.606086666667     0.098965000000     0.111460000000     0          
O        O      0.606626666667     0.157430000000     0.123890000000     0          
O        O      0.541790000000     0.041225000000     0.721740000000     0          
O        O      0.564470000000     0.058880000000     0.661700000000     0          
O        O      0.632196666667     0.051500000000     0.665380000000     0          
O        O      0.565240000000     0.192705000000     0.640690000000     0          
O        O      0.632370000000     0.201975000000     0.634110000000     0          
O        O      0.544086666667     0.044370000000     0.078600000000     0          
T        Si     0.396670000000     0.322385000000     0.839600000000     0          
T        Si     0.397006666667     0.321885000000     0.967370000000     0          
T        Si     0.459930000000     0.284805000000     0.863240000000     0          
T        Si     0.374570000000     0.361280000000     0.903300000000     0          
T        Si     0.374283333333     0.365410000000     0.781510000000     0          
T        Si     0.459923333333     0.284650000000     0.943550000000     0          
T        Si     0.373026666667     0.366760000000     0.022720000000     0          
T        Si     0.373243333333     0.428465000000     0.926370000000     0          
T        Si     0.398490000000     0.431800000000     0.797790000000     0          
T        Si     0.374316666667     0.367530000000     0.700060000000     0          
T        Si     0.399213333333     0.431465000000     0.000600000000     0          
T        Si     0.373203333333     0.369740000000     0.104360000000     0          
T        Si     0.374070000000     0.465690000000     0.860910000000     0          
T        Si     0.460053333333     0.465865000000     0.762410000000     0          
T        Si     0.398436666667     0.423700000000     0.660770000000     0          
T        Si     0.396953333333     0.323590000000     0.641290000000     0          
T        Si     0.459620000000     0.465485000000     0.038790000000     0          
T        Si     0.460053333333     0.465585000000     0.680990000000     0          
T        Si     0.459753333333     0.285070000000     0.618610000000     0          
O        O      0.390563333333     0.336775000000     0.801870000000     0          
O        O      0.367833333333     0.296215000000     0.845790000000     0          
O        O      0.435080000000     0.307280000000     0.841400000000     0          
O        O      0.392510000000     0.348205000000     0.868750000000     0          
O        O      0.435493333333     0.306920000000     0.966080000000     0          
O        O      0.367876666667     0.295675000000     0.963150000000     0          
O        O      0.391496666667     0.338230000000     0.004130000000     0          
O        O      0.392870000000     0.346085000000     0.936520000000     0          
O        O      0.456920000000     0.293670000000     0.903430000000     0          
O        O      0.380553333333     0.397485000000     0.905460000000     0          
O        O      0.394473333333     0.395510000000     0.794290000000     0          
O        O      0.379140000000     0.360805000000     0.740610000000     0          
O        O      0.372920000000     0.361850000000     0.063840000000     0          
O        O      0.394943333333     0.397010000000     0.013900000000     0          
O        O      0.378900000000     0.457040000000     0.900990000000     0          
O        O      0.399006666667     0.431540000000     0.959070000000     0          
O        O      0.396023333333     0.442140000000     0.837560000000     0          
O        O      0.367886666667     0.448165000000     0.776140000000     0          
O        O      0.436156666667     0.441740000000     0.782890000000     0          
O        O      0.395306666667     0.398175000000     0.690390000000     0          
O        O      0.389893333333     0.339560000000     0.678030000000     0          
O        O      0.436343333333     0.443900000000     0.014350000000     0          
O        O      0.367780000000     0.451960000000     0.015550000000     0          
O        O      0.393913333333     0.401035000000     0.111460000000     0          
O        O      0.393373333333     0.342570000000     0.123890000000     0          
O        O      0.458210000000     0.458775000000     0.721740000000     0          
O        O      0.435530000000     0.441120000000     0.661700000000     0          
O        O      0.367803333333     0.448500000000     0.665380000000     0          
O        O      0.434760000000     0.307295000000     0.640690000000     0          
O        O      0.367630000000     0.298025000000     0.634110000000     0          
O        O      0.455913333333     0.455630000000     0.078600000000     0          
T        Si     0.396670000000     0.427615000000     0.339600000000     0          
T        Si     0.397006666667     0.428115000000     0.467370000000     0          
T        Si     0.459930000000     0.465195000000     0.363240000000     0          
T        Si     0.374570000000     0.388720000000     0.403300000000     0          
T        Si     0.374283333333     0.384590000000     0.281510000000     0          
T        Si     0.459923333333     0.465350000000     0.443550000000     0          
T        Si     0.373026666667     0.383240000000     0.522720000000     0          
T        Si     0.373243333333     0.321535000000     0.426370000000     0          
T        Si     0.398490000000     0.318200000000     0.297790000000     0          
T        Si     0.374316666667     0.382470000000     0.200060000000     0          
T        Si     0.399213333333     0.318535000000     0.500600000000     0          
T        Si     0.373203333333     0.380260000000     0.604360000000     0          
T        Si     0.374070000000     0.284310000000     0.360910000000     0          
T        Si     0.460053333333     0.284135000000     0.262410000000     0          
T        Si     0.398436666667     0.326300000000     0.160770000000     0          
T        Si     0.396953333333     0.426410000000     0.141290000000     0          
T        Si     0.459620000000     0.284515000000     0.538790000000     0          
T        Si     0.460053333333     0.284415000000     0.180990000000     0          
T        Si     0.459753333333     0.464930000000     0.118610000000     0          
T        Si     0.333333333333     0.463730000000     0.366810000000     0          
T        Si     0.333333333333     0.463785000000     0.441920000000     0          
T        Si     0.333333333333     0.284665000000     0.262580000000     0          
T        Si     0.333333333333     0.286535000000     0.535640000000     0          
T        Si     0.333333333333     0.284655000000     0.179630000000     0          
T        Si     0.333333333333     0.463470000000     0.113740000000     0          
O        O      0.390563333333     0.413225000000     0.301870000000     0          
O        O      0.367833333333     0.453785000000     0.345790000000     0          
O        O      0.435080000000     0.442720000000     0.341400000000     0          
O        O      0.392510000000     0.401795000000     0.368750000000     0          
O        O      0.435493333333     0.443080000000     0.466080000000     0          
O        O      0.367876666667     0.454325000000     0.463150000000     0          
O        O      0.391496666667     0.411770000000     0.504130000000     0          
O        O      0.392870000000     0.403915000000     0.436520000000     0          
O        O      0.448016666667     0.000000000000     0.357820000000     0          
O        O      0.500000000000     0.461260000000     0.350950000000     0          
O        O      0.456920000000     0.456330000000     0.403430000000     0          
O        O      0.380553333333     0.352515000000     0.405460000000     0          
O        O      0.333333333333     0.396340000000     0.403210000000     0          
O        O      0.394473333333     0.354490000000     0.294290000000     0          
O        O      0.379140000000     0.389195000000     0.240610000000     0          
O        O      0.333333333333     0.381540000000     0.290790000000     0          
O        O      0.500000000000     0.461975000000     0.455970000000     0          
O        O      0.447363333333     0.000000000000     0.448780000000     0          
O        O      0.372920000000     0.388150000000     0.563840000000     0          
O        O      0.333333333333     0.379790000000     0.509170000000     0          
O        O      0.394943333333     0.352990000000     0.513900000000     0          
O        O      0.378900000000     0.292960000000     0.400990000000     0          
O        O      0.333333333333     0.321585000000     0.439890000000     0          
O        O      0.399006666667     0.318460000000     0.459070000000     0          
O        O      0.396023333333     0.307860000000     0.337560000000     0          
O        O      0.367886666667     0.301835000000     0.276140000000     0          
O        O      0.436156666667     0.308260000000     0.282890000000     0          
O        O      0.395306666667     0.351825000000     0.190390000000     0          
O        O      0.389893333333     0.410440000000     0.178030000000     0          
O        O      0.333333333333     0.378225000000     0.191430000000     0          
O        O      0.436343333333     0.306100000000     0.514350000000     0          
O        O      0.367780000000     0.298040000000     0.515550000000     0          
O        O      0.393913333333     0.348965000000     0.611460000000     0          
O        O      0.333333333333     0.377770000000     0.617760000000     0          
O        O      0.393373333333     0.407430000000     0.623890000000     0          
O        O      0.333333333333     0.286735000000     0.350500000000     0          
O        O      0.387346666667     0.250000000000     0.354500000000     0          
O        O      0.500000000000     0.287170000000     0.275370000000     0          
O        O      0.458210000000     0.291225000000     0.221740000000     0          
O        O      0.446530000000     0.250000000000     0.269460000000     0          
O        O      0.435530000000     0.308880000000     0.161700000000     0          
O        O      0.367803333333     0.301500000000     0.165380000000     0          
O        O      0.434760000000     0.442705000000     0.140690000000     0          
O        O      0.367630000000     0.451975000000     0.134110000000     0          
O        O      0.446260000000     0.250000000000     0.534440000000     0          
O        O      0.500000000000     0.286760000000     0.527060000000     0          
O        O      0.455913333333     0.294370000000     0.578600000000     0          
O        O      0.447590000000     0.250000000000     0.173700000000     0          
O        O      0.500000000000     0.288370000000     0.168270000000     0          
O        O      0.500000000000     0.460495000000     0.130160000000     0          
O        O      0.448726666667     0.000000000000     0.123750000000     0          
O        O      0.333333333333     0.000000000000     0.371910000000     0          
O        O      0.333333333333     0.448020000000     0.404380000000     0          
O        O      0.333333333333     0.000000000000     0.436370000000     0          
O        O      0.333333333333     0.250000000000     0.275950000000     0          
O        O      0.333333333333     0.285050000000     0.221090000000     0          
O        O      0.333333333333     0.250000000000     0.536380000000     0          
O        O      0.333333333333     0.299070000000     0.574690000000     0          
O        O      0.333333333333     0.250000000000     0.166220000000     0          
O        O      0.333333333333     0.000000000000     0.113000000000     0          
T        Si     0.603330000000     0.072385000000     0.339600000000     0          
T        Si     0.602993333333     0.071885000000     0.467370000000     0          
T        Si     0.540070000000     0.034805000000     0.363240000000     0          
T        Si     0.625430000000     0.111280000000     0.403300000000     0          
T        Si     0.625716666667     0.115410000000     0.281510000000     0          
T        Si     0.540076666667     0.034650000000     0.443550000000     0          
T        Si     0.626973333333     0.116760000000     0.522720000000     0          
T        Si     0.626756666667     0.178465000000     0.426370000000     0          
T        Si     0.601510000000     0.181800000000     0.297790000000     0          
T        Si     0.625683333333     0.117530000000     0.200060000000     0          
T        Si     0.600786666667     0.181465000000     0.500600000000     0          
T        Si     0.626796666667     0.119740000000     0.604360000000     0          
T        Si     0.625930000000     0.215690000000     0.360910000000     0          
T        Si     0.539946666667     0.215865000000     0.262410000000     0          
T        Si     0.601563333333     0.173700000000     0.160770000000     0          
T        Si     0.603046666667     0.073590000000     0.141290000000     0          
T        Si     0.540380000000     0.215485000000     0.538790000000     0          
T        Si     0.539946666667     0.215585000000     0.180990000000     0          
T        Si     0.540246666667     0.035070000000     0.118610000000     0          
T        Si     0.333333333333     0.036270000000     0.366810000000     0          
T        Si     0.333333333333     0.036215000000     0.441920000000     0          
T        Si     0.333333333333     0.215335000000     0.262580000000     0          
T        Si     0.333333333333     0.213465000000     0.535640000000     0          
T        Si     0.333333333333     0.215345000000     0.179630000000     0          
T        Si     0.333333333333     0.036530000000     0.113740000000     0          
O        O      0.609436666667     0.086775000000     0.301870000000     0          
O        O      0.632166666667     0.046215000000     0.345790000000     0          
O        O      0.564920000000     0.057280000000     0.341400000000     0          
O        O      0.607490000000     0.098205000000     0.368750000000     0          
O        O      0.564506666667     0.056920000000     0.466080000000     0          
O        O      0.632123333333     0.045675000000     0.463150000000     0          
O        O      0.608503333333     0.088230000000     0.504130000000     0          
O        O      0.607130000000     0.096085000000     0.436520000000     0          
O        O      0.551983333333     0.000000000000     0.357820000000     0          
O        O      0.500000000000     0.038740000000     0.350950000000     0          
O        O      0.543080000000     0.043670000000     0.403430000000     0          
O        O      0.619446666667     0.147485000000     0.405460000000     0          
O        O      0.333333333333     0.103660000000     0.403210000000     0          
O        O      0.605526666667     0.145510000000     0.294290000000     0          
O        O      0.620860000000     0.110805000000     0.240610000000     0          
O        O      0.333333333333     0.118460000000     0.290790000000     0          
O        O      0.500000000000     0.038025000000     0.455970000000     0          
O        O      0.552636666667     0.000000000000     0.448780000000     0          
O        O      0.627080000000     0.111850000000     0.563840000000     0          
O        O      0.333333333333     0.120210000000     0.509170000000     0          
O        O      0.605056666667     0.147010000000     0.513900000000     0          
O        O      0.621100000000     0.207040000000     0.400990000000     0          
O        O      0.333333333333     0.178415000000     0.439890000000     0          
O        O      0.600993333333     0.181540000000     0.459070000000     0          
O        O      0.603976666667     0.192140000000     0.337560000000     0          
O        O      0.632113333333     0.198165000000     0.276140000000     0          
O        O      0.563843333333     0.191740000000     0.282890000000     0          
O        O      0.604693333333     0.148175000000     0.190390000000     0          
O        O      0.610106666667     0.089560000000     0.178030000000     0          
O        O      0.333333333333     0.121775000000     0.191430000000     0          
O        O      0.563656666667     0.193900000000     0.514350000000     0          
O        O      0.632220000000     0.201960000000     0.515550000000     0          
O        O      0.606086666667     0.151035000000     0.611460000000     0          
O        O      0.333333333333     0.122230000000     0.617760000000     0          
O        O      0.606626666667     0.092570000000     0.623890000000     0          
O        O      0.333333333333     0.213265000000     0.350500000000     0          
O        O      0.612653333333     0.250000000000     0.354500000000     0          
O        O      0.500000000000     0.212830000000     0.275370000000     0          
O        O      0.541790000000     0.208775000000     0.221740000000     0          
O        O      0.553470000000     0.250000000000     0.269460000000     0          
O        O      0.564470000000     0.191120000000     0.161700000000     0          
O        O      0.632196666667     0.198500000000     0.165380000000     0          
O        O      0.565240000000     0.057295000000     0.140690000000     0          
O        O      0.632370000000     0.048025000000     0.134110000000     0          
O        O      0.553740000000     0.250000000000     0.534440000000     0          
O        O      0.500000000000     0.213240000000     0.527060000000     0          
O        O      0.544086666667     0.205630000000     0.578600000000     0          
O        O      0.552410000000     0.250000000000     0.173700000000     0          
O        O      0.500000000000     0.211630000000     0.168270000000     0          
O        O      0.500000000000     0.039505000000     0.130160000000     0          
O        O      0.551273333333     0.000000000000     0.123750000000     0          
O        O      0.333333333333     0.051980000000     0.404380000000     0          
O        O      0.333333333333     0.214950000000     0.221090000000     0          
O        O      0.333333333333     0.200930000000     0.574690000000     0          
T        Si     0.603330000000     0.427615000000     0.339600000000     0          
T        Si     0.602993333333     0.428115000000     0.467370000000     0          
T        Si     0.540070000000     0.465195000000     0.363240000000     0          
T        Si     0.625430000000     0.388720000000     0.403300000000     0          
T        Si     0.625716666667     0.384590000000     0.281510000000     0          
T        Si     0.540076666667     0.465350000000     0.443550000000     0          
T        Si     0.626973333333     0.383240000000     0.522720000000     0          
T        Si     0.626756666667     0.321535000000     0.426370000000     0          
T        Si     0.601510000000     0.318200000000     0.297790000000     0          
T        Si     0.625683333333     0.382470000000     0.200060000000     0          
T        Si     0.600786666667     0.318535000000     0.500600000000     0          
T        Si     0.626796666667     0.380260000000     0.604360000000     0          
T        Si     0.625930000000     0.284310000000     0.360910000000     0          
T        Si     0.539946666667     0.284135000000     0.262410000000     0          
T        Si     0.601563333333     0.326300000000     0.160770000000     0          
T        Si     0.603046666667     0.426410000000     0.141290000000     0          
T        Si     0.540380000000     0.284515000000     0.538790000000     0          
T        Si     0.539946666667     0.284415000000     0.180990000000     0          
T        Si     0.540246666667     0.464930000000     0.118610000000     0          
O        O      0.609436666667     0.413225000000     0.301870000000     0          
O        O      0.632166666667     0.453785000000     0.345790000000     0          
O        O      0.564920000000     0.442720000000     0.341400000000     0          
O        O      0.607490000000     0.401795000000     0.368750000000     0          
O        O      0.564506666667     0.443080000000     0.466080000000     0          
O        O      0.632123333333     0.454325000000     0.463150000000     0          
O        O      0.608503333333     0.411770000000     0.504130000000     0          
O        O      0.607130000000     0.403915000000     0.436520000000     0          
O        O      0.543080000000     0.456330000000     0.403430000000     0          
O        O      0.619446666667     0.352515000000     0.405460000000     0          
O        O      0.605526666667     0.354490000000     0.294290000000     0          
O        O      0.620860000000     0.389195000000     0.240610000000     0          
O        O      0.627080000000     0.388150000000     0.563840000000     0          
O        O      0.605056666667     0.352990000000     0.513900000000     0          
O        O      0.621100000000     0.292960000000     0.400990000000     0          
O        O      0.600993333333     0.318460000000     0.459070000000     0          
O        O      0.603976666667     0.307860000000     0.337560000000     0          
O        O      0.632113333333     0.301835000000     0.276140000000     0          
O        O      0.563843333333     0.308260000000     0.282890000000     0          
O        O      0.604693333333     0.351825000000     0.190390000000     0          
O        O      0.610106666667     0.410440000000     0.178030000000     0          
O        O      0.563656666667     0.306100000000     0.514350000000     0          
O        O      0.632220000000     0.298040000000     0.515550000000     0          
O        O      0.606086666667     0.348965000000     0.611460000000     0          
O        O      0.606626666667     0.407430000000     0.623890000000     0          
O        O      0.541790000000     0.291225000000     0.221740000000     0          
O        O      0.564470000000     0.308880000000     0.161700000000     0          
O        O      0.632196666667     0.301500000000     0.165380000000     0          
O        O      0.565240000000     0.442705000000     0.140690000000     0          
O        O      0.632370000000     0.451975000000     0.134110000000     0          
O        O      0.544086666667     0.294370000000     0.578600000000     0          
T        Si     0.396670000000     0.072385000000     0.339600000000     0          
T        Si     0.397006666667     0.071885000000     0.467370000000     0          
T        Si     0.459930000000     0.034805000000     0.363240000000     0          
T        Si     0.374570000000     0.111280000000     0.403300000000     0          
T        Si     0.374283333333     0.115410000000     0.281510000000     0          
T        Si     0.459923333333     0.034650000000     0.443550000000     0          
T        Si     0.373026666667     0.116760000000     0.522720000000     0          
T        Si     0.373243333333     0.178465000000     0.426370000000     0          
T        Si     0.398490000000     0.181800000000     0.297790000000     0          
T        Si     0.374316666667     0.117530000000     0.200060000000     0          
T        Si     0.399213333333     0.181465000000     0.500600000000     0          
T        Si     0.373203333333     0.119740000000     0.604360000000     0          
T        Si     0.374070000000     0.215690000000     0.360910000000     0          
T        Si     0.460053333333     0.215865000000     0.262410000000     0          
T        Si     0.398436666667     0.173700000000     0.160770000000     0          
T        Si     0.396953333333     0.073590000000     0.141290000000     0          
T        Si     0.459620000000     0.215485000000     0.538790000000     0          
T        Si     0.460053333333     0.215585000000     0.180990000000     0          
T        Si     0.459753333333     0.035070000000     0.118610000000     0          
O        O      0.390563333333     0.086775000000     0.301870000000     0          
O        O      0.367833333333     0.046215000000     0.345790000000     0          
O        O      0.435080000000     0.057280000000     0.341400000000     0          
O        O      0.392510000000     0.098205000000     0.368750000000     0          
O        O      0.435493333333     0.056920000000     0.466080000000     0          
O        O      0.367876666667     0.045675000000     0.463150000000     0          
O        O      0.391496666667     0.088230000000     0.504130000000     0          
O        O      0.392870000000     0.096085000000     0.436520000000     0          
O        O      0.456920000000     0.043670000000     0.403430000000     0          
O        O      0.380553333333     0.147485000000     0.405460000000     0          
O        O      0.394473333333     0.145510000000     0.294290000000     0          
O        O      0.379140000000     0.110805000000     0.240610000000     0          
O        O      0.372920000000     0.111850000000     0.563840000000     0          
O        O      0.394943333333     0.147010000000     0.513900000000     0          
O        O      0.378900000000     0.207040000000     0.400990000000     0          
O        O      0.399006666667     0.181540000000     0.459070000000     0          
O        O      0.396023333333     0.192140000000     0.337560000000     0          
O        O      0.367886666667     0.198165000000     0.276140000000     0          
O        O      0.436156666667     0.191740000000     0.282890000000     0          
O        O      0.395306666667     0.148175000000     0.190390000000     0          
O        O      0.389893333333     0.089560000000     0.178030000000     0          
O        O      0.436343333333     0.193900000000     0.514350000000     0          
O        O      0.367780000000     0.201960000000     0.515550000000     0          
O        O      0.393913333333     0.151035000000     0.611460000000     0          
O        O      0.393373333333     0.092570000000     0.623890000000     0          
O        O      0.458210000000     0.208775000000     0.221740000000     0          
O        O      0.435530000000     0.191120000000     0.161700000000     0          
O        O      0.367803333333     0.198500000000     0.165380000000     0          
O        O      0.434760000000     0.057295000000     0.140690000000     0          
O        O      0.367630000000     0.048025000000     0.134110000000     0          
O        O      0.455913333333     0.205630000000     0.578600000000     0          
T        Si     0.396670000000     0.677615000000     0.839600000000     0          
T        Si     0.397006666667     0.678115000000     0.967370000000     0          
T        Si     0.459930000000     0.715195000000     0.863240000000     0          
T        Si     0.374570000000     0.638720000000     0.903300000000     0          
T        Si     0.374283333333     0.634590000000     0.781510000000     0          
T        Si     0.459923333333     0.715350000000     0.943550000000     0          
T        Si     0.373026666667     0.633240000000     0.022720000000     0          
T        Si     0.373243333333     0.571535000000     0.926370000000     0          
T        Si     0.398490000000     0.568200000000     0.797790000000     0          
T        Si     0.374316666667     0.632470000000     0.700060000000     0          
T        Si     0.399213333333     0.568535000000     0.000600000000     0          
T        Si     0.373203333333     0.630260000000     0.104360000000     0          
T        Si     0.374070000000     0.534310000000     0.860910000000     0          
T        Si     0.460053333333     0.534135000000     0.762410000000     0          
T        Si     0.398436666667     0.576300000000     0.660770000000     0          
T        Si     0.396953333333     0.676410000000     0.641290000000     0          
T        Si     0.459620000000     0.534515000000     0.038790000000     0          
T        Si     0.460053333333     0.534415000000     0.680990000000     0          
T        Si     0.459753333333     0.714930000000     0.618610000000     0          
T        Si     0.333333333333     0.713730000000     0.866810000000     0          
T        Si     0.333333333333     0.713785000000     0.941920000000     0          
T        Si     0.333333333333     0.534665000000     0.762580000000     0          
T        Si     0.333333333333     0.536535000000     0.035640000000     0          
T        Si     0.333333333333     0.534655000000     0.679630000000     0          
T        Si     0.333333333333     0.713470000000     0.613740000000     0          
O        O      0.390563333333     0.663225000000     0.801870000000     0          
O        O      0.367833333333     0.703785000000     0.845790000000     0          
O        O      0.435080000000     0.692720000000     0.841400000000     0          
O        O      0.392510000000     0.651795000000     0.868750000000     0          
O        O      0.435493333333     0.693080000000     0.966080000000     0          
O        O      0.367876666667     0.704325000000     0.963150000000     0          
O        O      0.391496666667     0.661770000000     0.004130000000     0          
O        O      0.392870000000     0.653915000000     0.936520000000     0          
O        O      0.448016666667     0.750000000000     0.857820000000     0          
O        O      0.500000000000     0.711260000000     0.850950000000     0          
O        O      0.456920000000     0.706330000000     0.903430000000     0          
O        O      0.380553333333     0.602515000000     0.905460000000     0          
O        O      0.333333333333     0.646340000000     0.903210000000     0          
O        O      0.394473333333     0.604490000000     0.794290000000     0          
O        O      0.379140000000     0.639195000000     0.740610000000     0          
O        O      0.333333333333     0.631540000000     0.790790000000     0          
O        O      0.500000000000     0.711975000000     0.955970000000     0          
O        O      0.447363333333     0.750000000000     0.948780000000     0          
O        O      0.372920000000     0.638150000000     0.063840000000     0          
O        O      0.333333333333     0.629790000000     0.009170000000     0          
O        O      0.394943333333     0.602990000000     0.013900000000     0          
O        O      0.378900000000     0.542960000000     0.900990000000     0          
O        O      0.333333333333     0.571585000000     0.939890000000     0          
O        O      0.399006666667     0.568460000000     0.959070000000     0          
O        O      0.396023333333     0.557860000000     0.837560000000     0          
O        O      0.367886666667     0.551835000000     0.776140000000     0          
O        O      0.436156666667     0.558260000000     0.782890000000     0          
O        O      0.395306666667     0.601825000000     0.690390000000     0          
O        O      0.389893333333     0.660440000000     0.678030000000     0          
O        O      0.333333333333     0.628225000000     0.691430000000     0          
O        O      0.436343333333     0.556100000000     0.014350000000     0          
O        O      0.367780000000     0.548040000000     0.015550000000     0          
O        O      0.393913333333     0.598965000000     0.111460000000     0          
O        O      0.333333333333     0.627770000000     0.117760000000     0          
O        O      0.393373333333     0.657430000000     0.123890000000     0          
O        O      0.333333333333     0.536735000000     0.850500000000     0          
O        O      0.387346666667     0.500000000000     0.854500000000     0          
O        O      0.500000000000     0.537170000000     0.775370000000     0          
O        O      0.458210000000     0.541225000000     0.721740000000     0          
O        O      0.446530000000     0.500000000000     0.769460000000     0          
O        O      0.435530000000     0.558880000000     0.661700000000     0          
O        O      0.367803333333     0.551500000000     0.665380000000     0          
O        O      0.434760000000     0.692705000000     0.640690000000     0          
O        O      0.367630000000     0.701975000000     0.634110000000     0          
O        O      0.446260000000     0.500000000000     0.034440000000     0          
O        O      0.500000000000     0.536760000000     0.027060000000     0          
O        O      0.455913333333     0.544370000000     0.078600000000     0          
O        O      0.447590000000     0.500000000000     0.673700000000     0          
O        O      0.500000000000     0.538370000000     0.668270000000     0          
O        O      0.500000000000     0.710495000000     0.630160000000     0          
O        O      0.448726666667     0.750000000000     0.623750000000     0          
O        O      0.333333333333     0.750000000000     0.871910000000     0          
O        O      0.333333333333     0.698020000000     0.904380000000     0          
O        O      0.333333333333     0.750000000000     0.936370000000     0          
O        O      0.333333333333     0.500000000000     0.775950000000     0          
O        O      0.333333333333     0.535050000000     0.721090000000     0          
O        O      0.333333333333     0.500000000000     0.036380000000     0          
O        O      0.333333333333     0.549070000000     0.074690000000     0          
O        O      0.333333333333     0.500000000000     0.666220000000     0          
O        O      0.333333333333     0.750000000000     0.613000000000     0          
T        Si     0.603330000000     0.822385000000     0.839600000000     0          
T        Si     0.602993333333     0.821885000000     0.967370000000     0          
T        Si     0.540070000000     0.784805000000     0.863240000000     0          
T        Si     0.625430000000     0.861280000000     0.903300000000     0          
T        Si     0.625716666667     0.865410000000     0.781510000000     0          
T        Si     0.540076666667     0.784650000000     0.943550000000     0          
T        Si     0.626973333333     0.866760000000     0.022720000000     0          
T        Si     0.626756666667     0.928465000000     0.926370000000     0          
T        Si     0.601510000000     0.931800000000     0.797790000000     0          
T        Si     0.625683333333     0.867530000000     0.700060000000     0          
T        Si     0.600786666667     0.931465000000     0.000600000000     0          
T        Si     0.626796666667     0.869740000000     0.104360000000     0          
T        Si     0.625930000000     0.965690000000     0.860910000000     0          
T        Si     0.539946666667     0.965865000000     0.762410000000     0          
T        Si     0.601563333333     0.923700000000     0.660770000000     0          
T        Si     0.603046666667     0.823590000000     0.641290000000     0          
T        Si     0.540380000000     0.965485000000     0.038790000000     0          
T        Si     0.539946666667     0.965585000000     0.680990000000     0          
T        Si     0.540246666667     0.785070000000     0.618610000000     0          
T        Si     0.333333333333     0.786270000000     0.866810000000     0          
T        Si     0.333333333333     0.786215000000     0.941920000000     0          
T        Si     0.333333333333     0.965335000000     0.762580000000     0          
T        Si     0.333333333333     0.963465000000     0.035640000000     0          
T        Si     0.333333333333     0.965345000000     0.679630000000     0          
T        Si     0.333333333333     0.786530000000     0.613740000000     0          
O        O      0.609436666667     0.836775000000     0.801870000000     0          
O        O      0.632166666667     0.796215000000     0.845790000000     0          
O        O      0.564920000000     0.807280000000     0.841400000000     0          
O        O      0.607490000000     0.848205000000     0.868750000000     0          
O        O      0.564506666667     0.806920000000     0.966080000000     0          
O        O      0.632123333333     0.795675000000     0.963150000000     0          
O        O      0.608503333333     0.838230000000     0.004130000000     0          
O        O      0.607130000000     0.846085000000     0.936520000000     0          
O        O      0.551983333333     0.750000000000     0.857820000000     0          
O        O      0.500000000000     0.788740000000     0.850950000000     0          
O        O      0.543080000000     0.793670000000     0.903430000000     0          
O        O      0.619446666667     0.897485000000     0.905460000000     0          
O        O      0.333333333333     0.853660000000     0.903210000000     0          
O        O      0.605526666667     0.895510000000     0.794290000000     0          
O        O      0.620860000000     0.860805000000     0.740610000000     0          
O        O      0.333333333333     0.868460000000     0.790790000000     0          
O        O      0.500000000000     0.788025000000     0.955970000000     0          
O        O      0.552636666667     0.750000000000     0.948780000000     0          
O        O      0.627080000000     0.861850000000     0.063840000000     0          
O        O      0.333333333333     0.870210000000     0.009170000000     0          
O        O      0.605056666667     0.897010000000     0.013900000000     0          
O        O      0.621100000000     0.957040000000     0.900990000000     0          
O        O      0.333333333333     0.928415000000     0.939890000000     0          
O        O      0.600993333333     0.931540000000     0.959070000000     0          
O        O      0.603976666667     0.942140000000     0.837560000000     0          
O        O      0.632113333333     0.948165000000     0.776140000000     0          
O        O      0.563843333333     0.941740000000     0.782890000000     0          
O        O      0.604693333333     0.898175000000     0.690390000000     0          
O        O      0.610106666667     0.839560000000     0.678030000000     0          
O        O      0.333333333333     0.871775000000     0.691430000000     0          
O        O      0.563656666667     0.943900000000     0.014350000000     0          
O        O      0.632220000000     0.951960000000     0.015550000000     0          
O        O      0.606086666667     0.901035000000     0.111460000000     0          
O        O      0.333333333333     0.872230000000     0.117760000000     0          
O        O      0.606626666667     0.842570000000     0.123890000000     0          
O        O      0.333333333333     0.963265000000     0.850500000000     0          
O        O      0.612653333333     0.500000000000     0.854500000000     0          
O        O      0.500000000000     0.962830000000     0.775370000000     0          
O        O      0.541790000000     0.958775000000     0.721740000000     0          
O        O      0.553470000000     0.500000000000     0.769460000000     0          
O        O      0.564470000000     0.941120000000     0.661700000000     0          
O        O      0.632196666667     0.948500000000     0.665380000000     0          
O        O      0.565240000000     0.807295000000     0.640690000000     0          
O        O      0.632370000000     0.798025000000     0.634110000000     0          
O        O      0.553740000000     0.500000000000     0.034440000000     0          
O        O      0.500000000000     0.963240000000     0.027060000000     0          
O        O      0.544086666667     0.955630000000     0.078600000000     0          
O        O      0.552410000000     0.500000000000     0.673700000000     0          
O        O      0.500000000000     0.961630000000     0.668270000000     0          
O        O      0.500000000000     0.789505000000     0.630160000000     0          
O        O      0.551273333333     0.750000000000     0.623750000000     0          
O        O      0.333333333333     0.801980000000     0.904380000000     0          
O        O      0.333333333333     0.964950000000     0.721090000000     0          
O        O      0.333333333333     0.950930000000     0.074690000000     0          
T        Si     0.603330000000     0.677615000000     0.839600000000     0          
T        Si     0.602993333333     0.678115000000     0.967370000000     0          
T        Si     0.540070000000     0.715195000000     0.863240000000     0          
T        Si     0.625430000000     0.638720000000     0.903300000000     0          
T        Si     0.625716666667     0.634590000000     0.781510000000     0          
T        Si     0.540076666667     0.715350000000     0.943550000000     0          
T        Si     0.626973333333     0.633240000000     0.022720000000     0          
T        Si     0.626756666667     0.571535000000     0.926370000000     0          
T        Si     0.601510000000     0.568200000000     0.797790000000     0          
T        Si     0.625683333333     0.632470000000     0.700060000000     0          
T        Si     0.600786666667     0.568535000000     0.000600000000     0          
T        Si     0.626796666667     0.630260000000     0.104360000000     0          
T        Si     0.625930000000     0.534310000000     0.860910000000     0          
T        Si     0.539946666667     0.534135000000     0.762410000000     0          
T        Si     0.601563333333     0.576300000000     0.660770000000     0          
T        Si     0.603046666667     0.676410000000     0.641290000000     0          
T        Si     0.540380000000     0.534515000000     0.038790000000     0          
T        Si     0.539946666667     0.534415000000     0.680990000000     0          
T        Si     0.540246666667     0.714930000000     0.618610000000     0          
O        O      0.609436666667     0.663225000000     0.801870000000     0          
O        O      0.632166666667     0.703785000000     0.845790000000     0          
O        O      0.564920000000     0.692720000000     0.841400000000     0          
O        O      0.607490000000     0.651795000000     0.868750000000     0          
O        O      0.564506666667     0.693080000000     0.966080000000     0          
O        O      0.632123333333     0.704325000000     0.963150000000     0          
O        O      0.608503333333     0.661770000000     0.004130000000     0          
O        O      0.607130000000     0.653915000000     0.936520000000     0          
O        O      0.543080000000     0.706330000000     0.903430000000     0          
O        O      0.619446666667     0.602515000000     0.905460000000     0          
O        O      0.605526666667     0.604490000000     0.794290000000     0          
O        O      0.620860000000     0.639195000000     0.740610000000     0          
O        O      0.627080000000     0.638150000000     0.063840000000     0          
O        O      0.605056666667     0.602990000000     0.013900000000     0          
O        O      0.621100000000     0.542960000000     0.900990000000     0          
O        O      0.600993333333     0.568460000000     0.959070000000     0          
O        O      0.603976666667     0.557860000000     0.837560000000     0          
O        O      0.632113333333     0.551835000000     0.776140000000     0          
O        O      0.563843333333     0.558260000000     0.782890000000     0          
O        O      0.604693333333     0.601825000000     0.690390000000     0          
O        O      0.610106666667     0.660440000000     0.678030000000     0          
O        O      0.563656666667     0.556100000000     0.014350000000     0          
O        O      0.632220000000     0.548040000000     0.015550000000     0          
O        O      0.606086666667     0.598965000000     0.111460000000     0          
O        O      0.606626666667     0.657430000000     0.123890000000     0          
O        O      0.541790000000     0.541225000000     0.721740000000     0          
O        O      0.564470000000     0.558880000000     0.661700000000     0          
O        O      0.632196666667     0.551500000000     0.665380000000     0          
O        O      0.565240000000     0.692705000000     0.640690000000     0          
O        O      0.632370000000     0.701975000000     0.634110000000     0          
O        O      0.544086666667     0.544370000000     0.078600000000     0          
T        Si     0.396670000000     0.822385000000     0.839600000000     0          
T        Si     0.397006666667     0.821885000000     0.967370000000     0          
T        Si     0.459930000000     0.784805000000     0.863240000000     0          
T        Si     0.374570000000     0.861280000000     0.903300000000     0          
T        Si     0.374283333333     0.865410000000     0.781510000000     0          
T        Si     0.459923333333     0.784650000000     0.943550000000     0          
T        Si     0.373026666667     0.866760000000     0.022720000000     0          
T        Si     0.373243333333     0.928465000000     0.926370000000     0          
T        Si     0.398490000000     0.931800000000     0.797790000000     0          
T        Si     0.374316666667     0.867530000000     0.700060000000     0          
T        Si     0.399213333333     0.931465000000     0.000600000000     0          
T        Si     0.373203333333     0.869740000000     0.104360000000     0          
T        Si     0.374070000000     0.965690000000     0.860910000000     0          
T        Si     0.460053333333     0.965865000000     0.762410000000     0          
T        Si     0.398436666667     0.923700000000     0.660770000000     0          
T        Si     0.396953333333     0.823590000000     0.641290000000     0          
T        Si     0.459620000000     0.965485000000     0.038790000000     0          
T        Si     0.460053333333     0.965585000000     0.680990000000     0          
T        Si     0.459753333333     0.785070000000     0.618610000000     0          
O        O      0.390563333333     0.836775000000     0.801870000000     0          
O        O      0.367833333333     0.796215000000     0.845790000000     0          
O        O      0.435080000000     0.807280000000     0.841400000000     0          
O        O      0.392510000000     0.848205000000     0.868750000000     0          
O        O      0.435493333333     0.806920000000     0.966080000000     0          
O        O      0.367876666667     0.795675000000     0.963150000000     0          
O        O      0.391496666667     0.838230000000     0.004130000000     0          
O        O      0.392870000000     0.846085000000     0.936520000000     0          
O        O      0.456920000000     0.793670000000     0.903430000000     0          
O        O      0.380553333333     0.897485000000     0.905460000000     0          
O        O      0.394473333333     0.895510000000     0.794290000000     0          
O        O      0.379140000000     0.860805000000     0.740610000000     0          
O        O      0.372920000000     0.861850000000     0.063840000000     0          
O        O      0.394943333333     0.897010000000     0.013900000000     0          
O        O      0.378900000000     0.957040000000     0.900990000000     0          
O        O      0.399006666667     0.931540000000     0.959070000000     0          
O        O      0.396023333333     0.942140000000     0.837560000000     0          
O        O      0.367886666667     0.948165000000     0.776140000000     0          
O        O      0.436156666667     0.941740000000     0.782890000000     0          
O        O      0.395306666667     0.898175000000     0.690390000000     0          
O        O      0.389893333333     0.839560000000     0.678030000000     0          
O        O      0.436343333333     0.943900000000     0.014350000000     0          
O        O      0.367780000000     0.951960000000     0.015550000000     0          
O        O      0.393913333333     0.901035000000     0.111460000000     0          
O        O      0.393373333333     0.842570000000     0.123890000000     0          
O        O      0.458210000000     0.958775000000     0.721740000000     0          
O        O      0.435530000000     0.941120000000     0.661700000000     0          
O        O      0.367803333333     0.948500000000     0.665380000000     0          
O        O      0.434760000000     0.807295000000     0.640690000000     0          
O        O      0.367630000000     0.798025000000     0.634110000000     0          
O        O      0.455913333333     0.955630000000     0.078600000000     0          
T        Si     0.396670000000     0.927615000000     0.339600000000     0          
T        Si     0.397006666667     0.928115000000     0.467370000000     0          
T        Si     0.459930000000     0.965195000000     0.363240000000     0          
T        Si     0.374570000000     0.888720000000     0.403300000000     0          
T        Si     0.374283333333     0.884590000000     0.281510000000     0          
T        Si     0.459923333333     0.965350000000     0.443550000000     0          
T        Si     0.373026666667     0.883240000000     0.522720000000     0          
T        Si     0.373243333333     0.821535000000     0.426370000000     0          
T        Si     0.398490000000     0.818200000000     0.297790000000     0          
T        Si     0.374316666667     0.882470000000     0.200060000000     0          
T        Si     0.399213333333     0.818535000000     0.500600000000     0          
T        Si     0.373203333333     0.880260000000     0.604360000000     0          
T        Si     0.374070000000     0.784310000000     0.360910000000     0          
T        Si     0.460053333333     0.784135000000     0.262410000000     0          
T        Si     0.398436666667     0.826300000000     0.160770000000     0          
T        Si     0.396953333333     0.926410000000     0.141290000000     0          
T        Si     0.459620000000     0.784515000000     0.538790000000     0          
T        Si     0.460053333333     0.784415000000     0.180990000000     0          
T        Si     0.459753333333     0.964930000000     0.118610000000     0          
T        Si     0.333333333333     0.963730000000     0.366810000000     0          
T        Si     0.333333333333     0.963785000000     0.441920000000     0          
T        Si     0.333333333333     0.784665000000     0.262580000000     0          
T        Si     0.333333333333     0.786535000000     0.535640000000     0          
T        Si     0.333333333333     0.784655000000     0.179630000000     0          
T        Si     0.333333333333     0.963470000000     0.113740000000     0          
O        O      0.390563333333     0.913225000000     0.301870000000     0          
O        O      0.367833333333     0.953785000000     0.345790000000     0          
O        O      0.435080000000     0.942720000000     0.341400000000     0          
O        O      0.392510000000     0.901795000000     0.368750000000     0          
O        O      0.435493333333     0.943080000000     0.466080000000     0          
O        O      0.367876666667     0.954325000000     0.463150000000     0          
O        O      0.391496666667     0.911770000000     0.504130000000     0          
O        O      0.392870000000     0.903915000000     0.436520000000     0          
O        O      0.448016666667     0.500000000000     0.357820000000     0          
O        O      0.500000000000     0.961260000000     0.350950000000     0          
O        O      0.456920000000     0.956330000000     0.403430000000     0          
O        O      0.380553333333     0.852515000000     0.405460000000     0          
O        O      0.333333333333     0.896340000000     0.403210000000     0          
O        O      0.394473333333     0.854490000000     0.294290000000     0          
O        O      0.379140000000     0.889195000000     0.240610000000     0          
O        O      0.333333333333     0.881540000000     0.290790000000     0          
O        O      0.500000000000     0.961975000000     0.455970000000     0          
O        O      0.447363333333     0.500000000000     0.448780000000     0          
O        O      0.372920000000     0.888150000000     0.563840000000     0          
O        O      0.333333333333     0.879790000000     0.509170000000     0          
O        O      0.394943333333     0.852990000000     0.513900000000     0          
O        O      0.378900000000     0.792960000000     0.400990000000     0          
O        O      0.333333333333     0.821585000000     0.439890000000     0          
O        O      0.399006666667     0.818460000000     0.459070000000     0          
O        O      0.396023333333     0.807860000000     0.337560000000     0          
O        O      0.367886666667     0.801835000000     0.276140000000     0          
O        O      0.436156666667     0.808260000000     0.282890000000     0          
O        O      0.395306666667     0.851825000000     0.190390000000     0          
O        O      0.389893333333     0.910440000000     0.178030000000     0          
O        O      0.333333333333     0.878225000000     0.191430000000     0          
O        O      0.436343333333     0.806100000000     0.514350000000     0          
O        O      0.367780000000     0.798040000000     0.515550000000     0          
O        O      0.393913333333     0.848965000000     0.611460000000     0          
O        O      0.333333333333     0.877770000000     0.617760000000     0          
O        O      0.393373333333     0.907430000000     0.623890000000     0          
O        O      0.333333333333     0.786735000000     0.350500000000     0          
O        O      0.387346666667     0.750000000000     0.354500000000     0          
O        O      0.500000000000     0.787170000000     0.275370000000     0          
O        O      0.458210000000     0.791225000000     0.221740000000     0          
O        O      0.446530000000     0.750000000000     0.269460000000     0          
O        O      0.435530000000     0.808880000000     0.161700000000     0          
O        O      0.367803333333     0.801500000000     0.165380000000     0          
O        O      0.434760000000     0.942705000000     0.140690000000     0          
O        O      0.367630000000     0.951975000000     0.134110000000     0          
O        O      0.446260000000     0.750000000000     0.534440000000     0          
O        O      0.500000000000     0.786760000000     0.527060000000     0          
O        O      0.455913333333     0.794370000000     0.578600000000     0          
O        O      0.447590000000     0.750000000000     0.173700000000     0          
O        O      0.500000000000     0.788370000000     0.168270000000     0          
O        O      0.500000000000     0.960495000000     0.130160000000     0          
O        O      0.448726666667     0.500000000000     0.123750000000     0          
O        O      0.333333333333     0.500000000000     0.371910000000     0          
O        O      0.333333333333     0.948020000000     0.404380000000     0          
O        O      0.333333333333     0.500000000000     0.436370000000     0          
O        O      0.333333333333     0.750000000000     0.275950000000     0          
O        O      0.333333333333     0.785050000000     0.221090000000     0          
O        O      0.333333333333     0.750000000000     0.536380000000     0          
O        O      0.333333333333     0.799070000000     0.574690000000     0          
O        O      0.333333333333     0.750000000000     0.166220000000     0          
O        O      0.333333333333     0.500000000000     0.113000000000     0          
T        Si     0.603330000000     0.572385000000     0.339600000000     0          
T        Si     0.602993333333     0.571885000000     0.467370000000     0          
T        Si     0.540070000000     0.534805000000     0.363240000000     0          
T        Si     0.625430000000     0.611280000000     0.403300000000     0          
T        Si     0.625716666667     0.615410000000     0.281510000000     0          
T        Si     0.540076666667     0.534650000000     0.443550000000     0          
T        Si     0.626973333333     0.616760000000     0.522720000000     0          
T        Si     0.626756666667     0.678465000000     0.426370000000     0          
T        Si     0.601510000000     0.681800000000     0.297790000000     0          
T        Si     0.625683333333     0.617530000000     0.200060000000     0          
T        Si     0.600786666667     0.681465000000     0.500600000000     0          
T        Si     0.626796666667     0.619740000000     0.604360000000     0          
T        Si     0.625930000000     0.715690000000     0.360910000000     0          
T        Si     0.539946666667     0.715865000000     0.262410000000     0          
T        Si     0.601563333333     0.673700000000     0.160770000000     0          
T        Si     0.603046666667     0.573590000000     0.141290000000     0          
T        Si     0.540380000000     0.715485000000     0.538790000000     0          
T        Si     0.539946666667     0.715585000000     0.180990000000     0          
T        Si     0.540246666667     0.535070000000     0.118610000000     0          
T        Si     0.333333333333     0.536270000000     0.366810000000     0          
T        Si     0.333333333333     0.536215000000     0.441920000000     0          
T        Si     0.333333333333     0.715335000000     0.262580000000     0          
T        Si     0.333333333333     0.713465000000     0.535640000000     0          
T        Si     0.333333333333     0.715345000000     0.179630000000     0          
T        Si     0.333333333333     0.536530000000     0.113740000000     0          
O        O      0.609436666667     0.586775000000     0.301870000000     0          
O        O      0.632166666667     0.546215000000     0.345790000000     0          
O        O      0.564920000000     0.557280000000     0.341400000000     0          
O        O      0.607490000000     0.598205000000     0.368750000000     0          
O        O      0.564506666667     0.556920000000     0.466080000000     0          
O        O      0.632123333333     0.545675000000     0.463150000000     0          
O        O      0.608503333333     0.588230000000     0.504130000000     0          
O        O      0.607130000000     0.596085000000     0.436520000000     0          
O        O      0.551983333333     0.500000000000     0.357820000000     0          
O        O      0.500000000000     0.538740000000     0.350950000000     0          
O        O      0.543080000000     0.543670000000     0.403430000000     0          
O        O      0.619446666667     0.647485000000     0.405460000000     0          
O        O      0.333333333333     0.603660000000     0.403210000000     0          
O        O      0.605526666667     0.645510000000     0.294290000000     0          
O        O      0.620860000000     0.610805000000     0.240610000000     0          
O        O      0.333333333333     0.618460000000     0.290790000000     0          
O        O      0.500000000000     0.538025000000     0.455970000000     0          
O        O      0.552636666667     0.500000000000     0.448780000000     0          
O        O      0.627080000000     0.611850000000     0.563840000000     0          
O        O      0.333333333333     0.620210000000     0.509170000000     0          
O        O      0.605056666667     0.647010000000     0.513900000000     0          
O        O      0.621100000000     0.707040000000     0.400990000000     0          
O        O      0.333333333333     0.678415000000     0.439890000000     0          
O        O      0.600993333333     0.681540000000     0.459070000000     0          
O        O      0.603976666667     0.692140000000     0.337560000000     0          
O        O      0.632113333333     0.698165000000     0.276140000000     0          
O        O      0.563843333333     0.691740000000     0.282890000000     0          
O        O      0.604693333333     0.648175000000     0.190390000000     0          
O        O      0.610106666667     0.589560000000     0.178030000000     0          
O        O      0.333333333333     0.621775000000     0.191430000000     0          
O        O      0.563656666667     0.693900000000     0.514350000000     0          
O        O      0.632220000000     0.701960000000     0.515550000000     0          
O        O      0.606086666667     0.651035000000     0.611460000000     0          
O        O      0.333333333333     0.622230000000     0.617760000000     0          
O        O      0.606626666667     0.592570000000     0.623890000000     0          
O        O      0.333333333333     0.713265000000     0.350500000000     0          
O        O      0.612653333333     0.750000000000     0.354500000000     0          
O        O      0.500000000000     0.712830000000     0.275370000000     0          
O        O      0.541790000000     0.708775000000     0.221740000000     0          
O        O      0.553470000000     0.750000000000     0.269460000000     0          
O        O      0.564470000000     0.691120000000     0.161700000000     0          
O        O      0.632196666667     0.698500000000     0.165380000000     0          
O        O      0.565240000000     0.557295000000     0.140690000000     0          
O        O      0.632370000000     0.548025000000     0.134110000000     0          
O        O      0.553740000000     0.750000000000     0.534440000000     0          
O        O      0.500000000000     0.713240000000     0.527060000000     0          
O        O      0.544086666667     0.705630000000     0.578600000000     0          
O        O      0.552410000000     0.750000000000     0.173700000000     0          
O        O      0.500000000000     0.711630000000     0.168270000000     0          
O        O      0.500000000000     0.539505000000     0.130160000000     0          
O        O      0.551273333333     0.500000000000     0.123750000000     0          
O        O      0.333333333333     0.551980000000     0.404380000000     0          
O        O      0.333333333333     0.714950000000     0.221090000000     0          
O        O      0.333333333333     0.700930000000     0.574690000000     0          
T        Si     0.603330000000     0.927615000000     0.339600000000     0          
T        Si     0.602993333333     0.928115000000     0.467370000000     0          
T        Si     0.540070000000     0.965195000000     0.363240000000     0          
T        Si     0.625430000000     0.888720000000     0.403300000000     0          
T        Si     0.625716666667     0.884590000000     0.281510000000     0          
T        Si     0.540076666667     0.965350000000     0.443550000000     0          
T        Si     0.626973333333     0.883240000000     0.522720000000     0          
T        Si     0.626756666667     0.821535000000     0.426370000000     0          
T        Si     0.601510000000     0.818200000000     0.297790000000     0          
T        Si     0.625683333333     0.882470000000     0.200060000000     0          
T        Si     0.600786666667     0.818535000000     0.500600000000     0          
T        Si     0.626796666667     0.880260000000     0.604360000000     0          
T        Si     0.625930000000     0.784310000000     0.360910000000     0          
T        Si     0.539946666667     0.784135000000     0.262410000000     0          
T        Si     0.601563333333     0.826300000000     0.160770000000     0          
T        Si     0.603046666667     0.926410000000     0.141290000000     0          
T        Si     0.540380000000     0.784515000000     0.538790000000     0          
T        Si     0.539946666667     0.784415000000     0.180990000000     0          
T        Si     0.540246666667     0.964930000000     0.118610000000     0          
O        O      0.609436666667     0.913225000000     0.301870000000     0          
O        O      0.632166666667     0.953785000000     0.345790000000     0          
O        O      0.564920000000     0.942720000000     0.341400000000     0          
O        O      0.607490000000     0.901795000000     0.368750000000     0          
O        O      0.564506666667     0.943080000000     0.466080000000     0          
O        O      0.632123333333     0.954325000000     0.463150000000     0          
O        O      0.608503333333     0.911770000000     0.504130000000     0          
O        O      0.607130000000     0.903915000000     0.436520000000     0          
O        O      0.543080000000     0.956330000000     0.403430000000     0          
O        O      0.619446666667     0.852515000000     0.405460000000     0          
O        O      0.605526666667     0.854490000000     0.294290000000     0          
O        O      0.620860000000     0.889195000000     0.240610000000     0          
O        O      0.627080000000     0.888150000000     0.563840000000     0          
O        O      0.605056666667     0.852990000000     0.513900000000     0          
O        O      0.621100000000     0.792960000000     0.400990000000     0          
O        O      0.600993333333     0.818460000000     0.459070000000     0          
O        O      0.603976666667     0.807860000000     0.337560000000     0          
O        O      0.632113333333     0.801835000000     0.276140000000     0          
O        O      0.563843333333     0.808260000000     0.282890000000     0          
O        O      0.604693333333     0.851825000000     0.190390000000     0          
O        O      0.610106666667     0.910440000000     0.178030000000     0          
O        O      0.563656666667     0.806100000000     0.514350000000     0          
O        O      0.632220000000     0.798040000000     0.515550000000     0          
O        O      0.606086666667     0.848965000000     0.611460000000     0          
O        O      0.606626666667     0.907430000000     0.623890000000     0          
O        O      0.541790000000     0.791225000000     0.221740000000     0          
O        O      0.564470000000     0.808880000000     0.161700000000     0          
O        O      0.632196666667     0.801500000000     0.165380000000     0          
O        O      0.565240000000     0.942705000000     0.140690000000     0          
O        O      0.632370000000     0.951975000000     0.134110000000     0          
O        O      0.544086666667     0.794370000000     0.578600000000     0          
T        Si     0.396670000000     0.572385000000     0.339600000000     0          
T        Si     0.397006666667     0.571885000000     0.467370000000     0          
T        Si     0.459930000000     0.534805000000     0.363240000000     0          
T        Si     0.374570000000     0.611280000000     0.403300000000     0          
T        Si     0.374283333333     0.615410000000     0.281510000000     0          
T        Si     0.459923333333     0.534650000000     0.443550000000     0          
T        Si     0.373026666667     0.616760000000     0.522720000000     0          
T        Si     0.373243333333     0.678465000000     0.426370000000     0          
T        Si     0.398490000000     0.681800000000     0.297790000000     0          
T        Si     0.374316666667     0.617530000000     0.200060000000     0          
T        Si     0.399213333333     0.681465000000     0.500600000000     0          
T        Si     0.373203333333     0.619740000000     0.604360000000     0          
T        Si     0.374070000000     0.715690000000     0.360910000000     0          
T        Si     0.460053333333     0.715865000000     0.262410000000     0          
T        Si     0.398436666667     0.673700000000     0.160770000000     0          
T        Si     0.396953333333     0.573590000000     0.141290000000     0          
T        Si     0.459620000000     0.715485000000     0.538790000000     0          
T        Si     0.460053333333     0.715585000000     0.180990000000     0          
T        Si     0.459753333333     0.535070000000     0.118610000000     0          
O        O      0.390563333333     0.586775000000     0.301870000000     0          
O        O      0.367833333333     0.546215000000     0.345790000000     0          
O        O      0.435080000000     0.557280000000     0.341400000000     0          
O        O      0.392510000000     0.598205000000     0.368750000000     0          
O        O      0.435493333333     0.556920000000     0.466080000000     0          
O        O      0.367876666667     0.545675000000     0.463150000000     0          
O        O      0.391496666667     0.588230000000     0.504130000000     0          
O        O      0.392870000000     0.596085000000     0.436520000000     0          
O        O      0.456920000000     0.543670000000     0.403430000000     0          
O        O      0.380553333333     0.647485000000     0.405460000000     0          
O        O      0.394473333333     0.645510000000     0.294290000000     0          
O        O      0.379140000000     0.610805000000     0.240610000000     0          
O        O      0.372920000000     0.611850000000     0.563840000000     0          
O        O      0.394943333333     0.647010000000     0.513900000000     0          
O        O      0.378900000000     0.707040000000     0.400990000000     0          
O        O      0.399006666667     0.681540000000     0.459070000000     0          
O        O      0.396023333333     0.692140000000     0.337560000000     0          
O        O      0.367886666667     0.698165000000     0.276140000000     0          
O        O      0.436156666667     0.691740000000     0.282890000000     0          
O        O      0.395306666667     0.648175000000     0.190390000000     0          
O        O      0.389893333333     0.589560000000     0.178030000000     0          
O        O      0.436343333333     0.693900000000     0.514350000000     0          
O        O      0.367780000000     0.701960000000     0.515550000000     0          
O        O      0.393913333333     0.651035000000     0.611460000000     0          
O        O      0.393373333333     0.592570000000     0.623890000000     0          
O        O      0.458210000000     0.708775000000     0.221740000000     0          
O        O      0.435530000000     0.691120000000     0.161700000000     0          
O        O      0.367803333333     0.698500000000     0.165380000000     0          
O        O      0.434760000000     0.557295000000     0.140690000000     0          
O        O      0.367630000000     0.548025000000     0.134110000000     0          
O        O      0.455913333333     0.705630000000     0.578600000000     0          
T        Si     0.730003333333     0.177615000000     0.839600000000     0          
T        Si     0.730340000000     0.178115000000     0.967370000000     0          
T        Si     0.793263333333     0.215195000000     0.863240000000     0          
T        Si     0.707903333333     0.138720000000     0.903300000000     0          
T        Si     0.707616666667     0.134590000000     0.781510000000     0          
T        Si     0.793256666667     0.215350000000     0.943550000000     0          
T        Si     0.706360000000     0.133240000000     0.022720000000     0          
T        Si     0.706576666667     0.071535000000     0.926370000000     0          
T        Si     0.731823333333     0.068200000000     0.797790000000     0          
T        Si     0.707650000000     0.132470000000     0.700060000000     0          
T        Si     0.732546666667     0.068535000000     0.000600000000     0          
T        Si     0.706536666667     0.130260000000     0.104360000000     0          
T        Si     0.707403333333     0.034310000000     0.860910000000     0          
T        Si     0.793386666667     0.034135000000     0.762410000000     0          
T        Si     0.731770000000     0.076300000000     0.660770000000     0          
T        Si     0.730286666667     0.176410000000     0.641290000000     0          
T        Si     0.792953333333     0.034515000000     0.038790000000     0          
T        Si     0.793386666667     0.034415000000     0.680990000000     0          
T        Si     0.793086666667     0.214930000000     0.618610000000     0          
T        Si     0.666666666667     0.213730000000     0.866810000000     0          
T        Si     0.666666666667     0.213785000000     0.941920000000     0          
T        Si     0.666666666667     0.034665000000     0.762580000000     0          
T        Si     0.666666666667     0.036535000000     0.035640000000     0          
T        Si     0.666666666667     0.034655000000     0.679630000000     0          
T        Si     0.666666666667     0.213470000000     0.613740000000     0          
O        O      0.723896666667     0.163225000000     0.801870000000     0          
O        O      0.701166666667     0.203785000000     0.845790000000     0          
O        O      0.768413333333     0.192720000000     0.841400000000     0          
O        O      0.725843333333     0.151795000000     0.868750000000     0          
O        O      0.768826666667     0.193080000000     0.966080000000     0          
O        O      0.701210000000     0.204325000000     0.963150000000     0          
O        O      0.724830000000     0.161770000000     0.004130000000     0          
O        O      0.726203333333     0.153915000000     0.936520000000     0          
O        O      0.781350000000     0.250000000000     0.857820000000     0          
O        O      0.833333333333     0.211260000000     0.850950000000     0          
O        O      0.790253333333     0.206330000000     0.903430000000     0          
O        O      0.713886666667     0.102515000000     0.905460000000     0          
O        O      0.666666666667     0.146340000000     0.903210000000     0          
O        O      0.727806666667     0.104490000000     0.794290000000     0          
O        O      0.712473333333     0.139195000000     0.740610000000     0          
O        O      0.666666666667     0.131540000000     0.790790000000     0          
O        O      0.833333333333     0.211975000000     0.955970000000     0          
O        O      0.780696666667     0.250000000000     0.948780000000     0          
O        O      0.706253333333     0.138150000000     0.063840000000     0          
O        O      0.666666666667     0.129790000000     0.009170000000     0          
O        O      0.728276666667     0.102990000000     0.013900000000     0          
O        O      0.712233333333     0.042960000000     0.900990000000     0          
O        O      0.666666666667     0.071585000000     0.939890000000     0          
O        O      0.732340000000     0.068460000000     0.959070000000     0          
O        O      0.729356666667     0.057860000000     0.837560000000     0          
O        O      0.701220000000     0.051835000000     0.776140000000     0          
O        O      0.769490000000     0.058260000000     0.782890000000     0          
O        O      0.728640000000     0.101825000000     0.690390000000     0          
O        O      0.723226666667     0.160440000000     0.678030000000     0          
O        O      0.666666666667     0.128225000000     0.691430000000     0          
O        O      0.769676666667     0.056100000000     0.014350000000     0          
O        O      0.701113333333     0.048040000000     0.015550000000     0          
O        O      0.727246666667     0.098965000000     0.111460000000     0          
O        O      0.666666666667     0.127770000000     0.117760000000     0          
O        O      0.726706666667     0.157430000000     0.123890000000     0          
O        O      0.666666666667     0.036735000000     0.850500000000     0          
O        O      0.720680000000     0.000000000000     0.854500000000     0          
O        O      0.833333333333     0.037170000000     0.775370000000     0          
O        O      0.791543333333     0.041225000000     0.721740000000     0          
O        O      0.779863333333     0.000000000000     0.769460000000     0          
O        O      0.768863333333     0.058880000000     0.661700000000     0          
O        O      0.701136666667     0.051500000000     0.665380000000     0          
O        O      0.768093333333     0.192705000000     0.640690000000     0          
O        O      0.700963333333     0.201975000000     0.634110000000     0          
O        O      0.779593333333     0.000000000000     0.034440000000     0          
O        O      0.833333333333     0.036760000000     0.027060000000     0          
O        O      0.789246666667     0.044370000000     0.078600000000     0          
O        O      0.780923333333     0.000000000000     0.673700000000     0          
O        O      0.833333333333     0.038370000000     0.668270000000     0          
O        O      0.833333333333     0.210495000000     0.630160000000     0          
O        O      0.782060000000     0.250000000000     0.623750000000     0          
O        O      0.666666666667     0.250000000000     0.871910000000     0          
O        O      0.666666666667     0.198020000000     0.904380000000     0          
O        O      0.666666666667     0.250000000000     0.936370000000     0          
O        O      0.666666666667     0.000000000000     0.775950000000     0          
O        O      0.666666666667     0.035050000000     0.721090000000     0          
O        O      0.666666666667     0.000000000000     0.036380000000     0          
O        O      0.666666666667     0.049070000000     0.074690000000     0          
O        O      0.666666666667     0.000000000000     0.666220000000     0          
O        O      0.666666666667     0.250000000000     0.613000000000     0          
T        Si     0.936663333333     0.322385000000     0.839600000000     0          
T        Si     0.936326666667     0.321885000000     0.967370000000     0          
T        Si     0.873403333333     0.284805000000     0.863240000000     0          
T        Si     0.958763333333     0.361280000000     0.903300000000     0          
T        Si     0.959050000000     0.365410000000     0.781510000000     0          
T        Si     0.873410000000     0.284650000000     0.943550000000     0          
T        Si     0.960306666667     0.366760000000     0.022720000000     0          
T        Si     0.960090000000     0.428465000000     0.926370000000     0          
T        Si     0.934843333333     0.431800000000     0.797790000000     0          
T        Si     0.959016666667     0.367530000000     0.700060000000     0          
T        Si     0.934120000000     0.431465000000     0.000600000000     0          
T        Si     0.960130000000     0.369740000000     0.104360000000     0          
T        Si     0.959263333333     0.465690000000     0.860910000000     0          
T        Si     0.873280000000     0.465865000000     0.762410000000     0          
T        Si     0.934896666667     0.423700000000     0.660770000000     0          
T        Si     0.936380000000     0.323590000000     0.641290000000     0          
T        Si     0.873713333333     0.465485000000     0.038790000000     0          
T        Si     0.873280000000     0.465585000000     0.680990000000     0          
T        Si     0.873580000000     0.285070000000     0.618610000000     0          
T        Si     0.666666666667     0.286270000000     0.866810000000     0          
T        Si     0.666666666667     0.286215000000     0.941920000000     0          
T        Si     0.666666666667     0.465335000000     0.762580000000     0          
T        Si     0.666666666667     0.463465000000     0.035640000000     0          
T        Si     0.666666666667     0.465345000000     0.679630000000     0          
T        Si     0.666666666667     0.286530000000     0.613740000000     0          
O        O      0.942770000000     0.336775000000     0.801870000000     0          
O        O      0.965500000000     0.296215000000     0.845790000000     0          
O        O      0.898253333333     0.307280000000     0.841400000000     0          
O        O      0.940823333333     0.348205000000     0.868750000000     0          
O        O      0.897840000000     0.306920000000     0.966080000000     0          
O        O      0.965456666667     0.295675000000     0.963150000000     0          
O        O      0.941836666667     0.338230000000     0.004130000000     0          
O        O      0.940463333333     0.346085000000     0.936520000000     0          
O        O      0.885316666667     0.250000000000     0.857820000000     0          
O        O      0.833333333333     0.288740000000     0.850950000000     0          
O        O      0.876413333333     0.293670000000     0.903430000000     0          
O        O      0.952780000000     0.397485000000     0.905460000000     0          
O        O      0.666666666667     0.353660000000     0.903210000000     0          
O        O      0.938860000000     0.395510000000     0.794290000000     0          
O        O      0.954193333333     0.360805000000     0.740610000000     0          
O        O      0.666666666667     0.368460000000     0.790790000000     0          
O        O      0.833333333333     0.288025000000     0.955970000000     0          
O        O      0.885970000000     0.250000000000     0.948780000000     0          
O        O      0.960413333333     0.361850000000     0.063840000000     0          
O        O      0.666666666667     0.370210000000     0.009170000000     0          
O        O      0.938390000000     0.397010000000     0.013900000000     0          
O        O      0.954433333333     0.457040000000     0.900990000000     0          
O        O      0.666666666667     0.428415000000     0.939890000000     0          
O        O      0.934326666667     0.431540000000     0.959070000000     0          
O        O      0.937310000000     0.442140000000     0.837560000000     0          
O        O      0.965446666667     0.448165000000     0.776140000000     0          
O        O      0.897176666667     0.441740000000     0.782890000000     0          
O        O      0.938026666667     0.398175000000     0.690390000000     0          
O        O      0.943440000000     0.339560000000     0.678030000000     0          
O        O      0.666666666667     0.371775000000     0.691430000000     0          
O        O      0.896990000000     0.443900000000     0.014350000000     0          
O        O      0.965553333333     0.451960000000     0.015550000000     0          
O        O      0.939420000000     0.401035000000     0.111460000000     0          
O        O      0.666666666667     0.372230000000     0.117760000000     0          
O        O      0.939960000000     0.342570000000     0.123890000000     0          
O        O      0.666666666667     0.463265000000     0.850500000000     0          
O        O      0.945986666667     0.000000000000     0.854500000000     0          
O        O      0.833333333333     0.462830000000     0.775370000000     0          
O        O      0.875123333333     0.458775000000     0.721740000000     0          
O        O      0.886803333333     0.000000000000     0.769460000000     0          
O        O      0.897803333333     0.441120000000     0.661700000000     0          
O        O      0.965530000000     0.448500000000     0.665380000000     0          
O        O      0.898573333333     0.307295000000     0.640690000000     0          
O        O      0.965703333333     0.298025000000     0.634110000000     0          
O        O      0.887073333333     0.000000000000     0.034440000000     0          
O        O      0.833333333333     0.463240000000     0.027060000000     0          
O        O      0.877420000000     0.455630000000     0.078600000000     0          
O        O      0.885743333333     0.000000000000     0.673700000000     0          
O        O      0.833333333333     0.461630000000     0.668270000000     0          
O        O      0.833333333333     0.289505000000     0.630160000000     0          
O        O      0.884606666667     0.250000000000     0.623750000000     0          
O        O      0.666666666667     0.301980000000     0.904380000000     0          
O        O      0.666666666667     0.464950000000     0.721090000000     0          
O        O      0.666666666667     0.450930000000     0.074690000000     0          
T        Si     0.936663333333     0.177615000000     0.839600000000     0          
T        Si     0.936326666667     0.178115000000     0.967370000000     0          
T        Si     0.873403333333     0.215195000000     0.863240000000     0          
T        Si     0.958763333333     0.138720000000     0.903300000000     0          
T        Si     0.959050000000     0.134590000000     0.781510000000     0          
T        Si     0.873410000000     0.215350000000     0.943550000000     0          
T        Si     0.960306666667     0.133240000000     0.022720000000     0          
T        Si     0.960090000000     0.071535000000     0.926370000000     0          
T        Si     0.934843333333     0.068200000000     0.797790000000     0          
T        Si     0.959016666667     0.132470000000     0.700060000000     0          
T        Si     0.934120000000     0.068535000000     0.000600000000     0          
T        Si     0.960130000000     0.130260000000     0.104360000000     0          
T        Si     0.959263333333     0.034310000000     0.860910000000     0          
T        Si     0.873280000000     0.034135000000     0.762410000000     0          
T        Si     0.934896666667     0.076300000000     0.660770000000     0          
T        Si     0.936380000000     0.176410000000     0.641290000000     0          
T        Si     0.873713333333     0.034515000000     0.038790000000     0          
T        Si     0.873280000000     0.034415000000     0.680990000000     0          
T        Si     0.873580000000     0.214930000000     0.618610000000     0          
O        O      0.942770000000     0.163225000000     0.801870000000     0          
O        O      0.965500000000     0.203785000000     0.845790000000     0          
O        O      0.898253333333     0.192720000000     0.841400000000     0          
O        O      0.940823333333     0.151795000000     0.868750000000     0          
O        O      0.897840000000     0.193080000000     0.966080000000     0          
O        O      0.965456666667     0.204325000000     0.963150000000     0          
O        O      0.941836666667     0.161770000000     0.004130000000     0          
O        O      0.940463333333     0.153915000000     0.936520000000     0          
O        O      0.876413333333     0.206330000000     0.903430000000     0          
O        O      0.952780000000     0.102515000000     0.905460000000     0          
O        O      0.938860000000     0.104490000000     0.794290000000     0          
O        O      0.954193333333     0.139195000000     0.740610000000     0          
O        O      0.960413333333     0.138150000000     0.063840000000     0          
O        O      0.938390000000     0.102990000000     0.013900000000     0          
O        O      0.954433333333     0.042960000000     0.900990000000     0          
O        O      0.934326666667     0.068460000000     0.959070000000     0          
O        O      0.937310000000     0.057860000000     0.837560000000     0          
O        O      0.965446666667     0.051835000000     0.776140000000     0          
O        O      0.897176666667     0.058260000000     0.782890000000     0          
O        O      0.938026666667     0.101825000000     0.690390000000     0          
O        O      0.943440000000     0.160440000000     0.678030000000     0          
O        O      0.896990000000     0.056100000000     0.014350000000     0          
O        O      0.965553333333     0.048040000000     0.015550000000     0          
O        O      0.939420000000     0.098965000000     0.111460000000     0          
O        O      0.939960000000     0.157430000000     0.123890000000     0          
O        O      0.875123333333     0.041225000000     0.721740000000     0          
O        O      0.897803333333     0.058880000000     0.661700000000     0          
O        O      0.965530000000     0.051500000000     0.665380000000     0          
O        O      0.898573333333     0.192705000000     0.640690000000     0          
O        O      0.965703333333     0.201975000000     0.634110000000     0          
O        O      0.877420000000     0.044370000000     0.078600000000     0          
T        Si     0.730003333333     0.322385000000     0.839600000000     0          
T        Si     0.730340000000     0.321885000000     0.967370000000     0          
T        Si     0.793263333333     0.284805000000     0.863240000000     0          
T        Si     0.707903333333     0.361280000000     0.903300000000     0          
T        Si     0.707616666667     0.365410000000     0.781510000000     0          
T        Si     0.793256666667     0.284650000000     0.943550000000     0          
T        Si     0.706360000000     0.366760000000     0.022720000000     0          
T        Si     0.706576666667     0.428465000000     0.926370000000     0          
T        Si     0.731823333333     0.431800000000     0.797790000000     0          
T        Si     0.707650000000     0.367530000000     0.700060000000     0          
T        Si     0.732546666667     0.431465000000     0.000600000000     0          
T        Si     0.706536666667     0.369740000000     0.104360000000     0          
T        Si     0.707403333333     0.465690000000     0.860910000000     0          
T        Si     0.793386666667     0.465865000000     0.762410000000     0          
T        Si     0.731770000000     0.423700000000     0.660770000000     0          
T        Si     0.730286666667     0.323590000000     0.641290000000     0          
T        Si     0.792953333333     0.465485000000     0.038790000000     0          
T        Si     0.793386666667     0.465585000000     0.680990000000     0          
T        Si     0.793086666667     0.285070000000     0.618610000000     0          
O        O      0.723896666667     0.336775000000     0.801870000000     0          
O        O      0.701166666667     0.296215000000     0.845790000000     0          
O        O      0.768413333333     0.307280000000     0.841400000000     0          
O        O      0.725843333333     0.348205000000     0.868750000000     0          
O        O      0.768826666667     0.306920000000     0.966080000000     0          
O        O      0.701210000000     0.295675000000     0.963150000000     0          
O        O      0.724830000000     0.338230000000     0.004130000000     0          
O        O      0.726203333333     0.346085000000     0.936520000000     0          
O        O      0.790253333333     0.293670000000     0.903430000000     0          
O        O      0.713886666667     0.397485000000     0.905460000000     0          
O        O      0.727806666667     0.395510000000     0.794290000000     0          
O        O      0.712473333333     0.360805000000     0.740610000000     0          
O        O      0.706253333333     0.361850000000     0.063840000000     0          
O        O      0.728276666667     0.397010000000     0.013900000000     0          
O        O      0.712233333333     0.457040000000     0.900990000000     0          
O        O      0.732340000000     0.431540000000     0.959070000000     0          
O        O      0.729356666667     0.442140000000     0.837560000000     0          
O        O      0.701220000000     0.448165000000     0.776140000000     0          
O        O      0.769490000000     0.441740000000     0.782890000000     0          
O        O      0.728640000000     0.398175000000     0.690390000000     0          
O        O      0.723226666667     0.339560000000     0.678030000000     0          
O        O      0.769676666667     0.443900000000     0.014350000000     0          
O        O      0.701113333333     0.451960000000     0.015550000000     0          
O        O      0.727246666667     0.401035000000     0.111460000000     0          
O        O      0.726706666667     0.342570000000     0.123890000000     0          
O        O      0.791543333333     0.458775000000     0.721740000000     0          
O        O      0.768863333333     0.441120000000     0.661700000000     0          
O        O      0.701136666667     0.448500000000     0.665380000000     0          
O        O      0.768093333333     0.307295000000     0.640690000000     0          
O        O      0.700963333333     0.298025000000     0.634110000000     0          
O        O      0.789246666667     0.455630000000     0.078600000000     0          
T        Si     0.730003333333     0.427615000000     0.339600000000     0          
T        Si     0.730340000000     0.428115000000     0.467370000000     0          
T        Si     0.793263333333     0.465195000000     0.363240000000     0          
T        Si     0.707903333333     0.388720000000     0.403300000000     0          
T        Si     0.707616666667     0.384590000000     0.281510000000     0          
T        Si     0.793256666667     0.465350000000     0.443550000000     0          
T        Si     0.706360000000     0.383240000000     0.522720000000     0          
T        Si     0.706576666667     0.321535000000     0.426370000000     0          
T        Si     0.731823333333     0.318200000000     0.297790000000     0          
T        Si     0.707650000000     0.382470000000     0.200060000000     0          
T        Si     0.732546666667     0.318535000000     0.500600000000     0          
T        Si     0.706536666667     0.380260000000     0.604360000000     0          
T        Si     0.707403333333     0.284310000000     0.360910000000     0          
T        Si     0.793386666667     0.284135000000     0.262410000000     0          
T        Si     0.731770000000     0.326300000000     0.160770000000     0          
T        Si     0.730286666667     0.426410000000     0.141290000000     0          
T        Si     0.792953333333     0.284515000000     0.538790000000     0          
T        Si     0.793386666667     0.284415000000     0.180990000000     0          
T        Si     0.793086666667     0.464930000000     0.118610000000     0          
T        Si     0.666666666667     0.463730000000     0.366810000000     0          
T        Si     0.666666666667     0.463785000000     0.441920000000     0          
T        Si     0.666666666667     0.284665000000     0.262580000000     0          
T        Si     0.666666666667     0.286535000000     0.535640000000     0          
T        Si     0.666666666667     0.284655000000     0.179630000000     0          
T        Si     0.666666666667     0.463470000000     0.113740000000     0          
O        O      0.723896666667     0.413225000000     0.301870000000     0          
O        O      0.701166666667     0.453785000000     0.345790000000     0          
O        O      0.768413333333     0.442720000000     0.341400000000     0          
O        O      0.725843333333     0.401795000000     0.368750000000     0          
O        O      0.768826666667     0.443080000000     0.466080000000     0          
O        O      0.701210000000     0.454325000000     0.463150000000     0          
O        O      0.724830000000     0.411770000000     0.504130000000     0          
O        O      0.726203333333     0.403915000000     0.436520000000     0          
O        O      0.781350000000     0.000000000000     0.357820000000     0          
O        O      0.833333333333     0.461260000000     0.350950000000     0          
O        O      0.790253333333     0.456330000000     0.403430000000     0          
O        O      0.713886666667     0.352515000000     0.405460000000     0          
O        O      0.666666666667     0.396340000000     0.403210000000     0          
O        O      0.727806666667     0.354490000000     0.294290000000     0          
O        O      0.712473333333     0.389195000000     0.240610000000     0          
O        O      0.666666666667     0.381540000000     0.290790000000     0          
O        O      0.833333333333     0.461975000000     0.455970000000     0          
O        O      0.780696666667     0.000000000000     0.448780000000     0          
O        O      0.706253333333     0.388150000000     0.563840000000     0          
O        O      0.666666666667     0.379790000000     0.509170000000     0          
O        O      0.728276666667     0.352990000000     0.513900000000     0          
O        O      0.712233333333     0.292960000000     0.400990000000     0          
O        O      0.666666666667     0.321585000000     0.439890000000     0          
O        O      0.732340000000     0.318460000000     0.459070000000     0          
O        O      0.729356666667     0.307860000000     0.337560000000     0          
O        O      0.701220000000     0.301835000000     0.276140000000     0          
O        O      0.769490000000     0.308260000000     0.282890000000     0          
O        O      0.728640000000     0.351825000000     0.190390000000     0          
O        O      0.723226666667     0.410440000000     0.178030000000     0          
O        O      0.666666666667     0.378225000000     0.191430000000     0          
O        O      0.769676666667     0.306100000000     0.514350000000     0          
O        O      0.701113333333     0.298040000000     0.515550000000     0          
O        O      0.727246666667     0.348965000000     0.611460000000     0          
O        O      0.666666666667     0.377770000000     0.617760000000     0          
O        O      0.726706666667     0.407430000000     0.623890000000     0          
O        O      0.666666666667     0.286735000000     0.350500000000     0          
O        O      0.720680000000     0.250000000000     0.354500000000     0          
O        O      0.833333333333     0.287170000000     0.275370000000     0          
O        O      0.791543333333     0.291225000000     0.221740000000     0          
O        O      0.779863333333     0.250000000000     0.269460000000     0          
O        O      0.768863333333     0.308880000000     0.161700000000     0          
O        O      0.701136666667     0.301500000000     0.165380000000     0          
O        O      0.768093333333     0.442705000000     0.140690000000     0          
O        O      0.700963333333     0.451975000000     0.134110000000     0          
O        O      0.779593333333     0.250000000000     0.534440000000     0          
O        O      0.833333333333     0.286760000000     0.527060000000     0          
O        O      0.789246666667     0.294370000000     0.578600000000     0          
O        O      0.780923333333     0.250000000000     0.173700000000     0          
O        O      0.833333333333     0.288370000000     0.168270000000     0          
O        O      0.833333333333     0.460495000000     0.130160000000     0          
O        O      0.782060000000     0.000000000000     0.123750000000     0          
O        O      0.666666666667     0.000000000000     0.371910000000     0          
O        O      0.666666666667     0.448020000000     0.404380000000     0          
O        O      0.666666666667     0.000000000000     0.436370000000     0          
O        O      0.666666666667     0.250000000000     0.275950000000     0          
O        O      0.666666666667     0.285050000000     0.221090000000     0          
O        O      0.666666666667     0.250000000000     0.536380000000     0          
O        O      0.666666666667     0.299070000000     0.574690000000     0          
O        O      0.666666666667     0.250000000000     0.166220000000     0          
O        O      0.666666666667     0.000000000000     0.113000000000     0          
T        Si     0.936663333333     0.072385000000     0.339600000000     0          
T        Si     0.936326666667     0.071885000000     0.467370000000     0          
T        Si     0.873403333333     0.034805000000     0.363240000000     0          
T        Si     0.958763333333     0.111280000000     0.403300000000     0          
T        Si     0.959050000000     0.115410000000     0.281510000000     0          
T        Si     0.873410000000     0.034650000000     0.443550000000     0          
T        Si     0.960306666667     0.116760000000     0.522720000000     0          
T        Si     0.960090000000     0.178465000000     0.426370000000     0          
T        Si     0.934843333333     0.181800000000     0.297790000000     0          
T        Si     0.959016666667     0.117530000000     0.200060000000     0          
T        Si     0.934120000000     0.181465000000     0.500600000000     0          
T        Si     0.960130000000     0.119740000000     0.604360000000     0          
T        Si     0.959263333333     0.215690000000     0.360910000000     0          
T        Si     0.873280000000     0.215865000000     0.262410000000     0          
T        Si     0.934896666667     0.173700000000     0.160770000000     0          
T        Si     0.936380000000     0.073590000000     0.141290000000     0          
T        Si     0.873713333333     0.215485000000     0.538790000000     0          
T        Si     0.873280000000     0.215585000000     0.180990000000     0          
T        Si     0.873580000000     0.035070000000     0.118610000000     0          
T        Si     0.666666666667     0.036270000000     0.366810000000     0          
T        Si     0.666666666667     0.036215000000     0.441920000000     0          
T        Si     0.666666666667     0.215335000000     0.262580000000     0          
T        Si     0.666666666667     0.213465000000     0.535640000000     0          
T        Si     0.666666666667     0.215345000000     0.179630000000     0          
T        Si     0.666666666667     0.036530000000     0.113740000000     0          
O        O      0.942770000000     0.086775000000     0.301870000000     0          
O        O      0.965500000000     0.046215000000     0.345790000000     0          
O        O      0.898253333333     0.057280000000     0.341400000000     0          
O        O      0.940823333333     0.098205000000     0.368750000000     0          
O        O      0.897840000000     0.056920000000     0.466080000000     0          
O        O      0.965456666667     0.045675000000     0.463150000000     0          
O        O      0.941836666667     0.088230000000     0.504130000000     0          
O        O      0.940463333333     0.096085000000     0.436520000000     0          
O        O      0.885316666667     0.000000000000     0.357820000000     0          
O        O      0.833333333333     0.038740000000     0.350950000000     0          
O        O      0.876413333333     0.043670000000     0.403430000000     0          
O        O      0.952780000000     0.147485000000     0.405460000000     0          
O        O      0.666666666667     0.103660000000     0.403210000000     0          
O        O      0.938860000000     0.145510000000     0.294290000000     0          
O        O      0.954193333333     0.110805000000     0.240610000000     0          
O        O      0.666666666667     0.118460000000     0.290790000000     0          
O        O      0.833333333333     0.038025000000     0.455970000000     0          
O        O      0.885970000000     0.000000000000     0.448780000000     0          
O        O      0.960413333333     0.111850000000     0.563840000000     0          
O        O      0.666666666667     0.120210000000     0.509170000000     0          
O        O      0.938390000000     0.147010000000     0.513900000000     0          
O        O      0.954433333333     0.207040000000     0.400990000000     0          
O        O      0.666666666667     0.178415000000     0.439890000000     0          
O        O      0.934326666667     0.181540000000     0.459070000000     0          
O        O      0.937310000000     0.192140000000     0.337560000000     0          
O        O      0.965446666667     0.198165000000     0.276140000000     0          
O        O      0.897176666667     0.191740000000     0.282890000000     0          
O        O      0.938026666667     0.148175000000     0.190390000000     0          
O        O      0.943440000000     0.089560000000     0.178030000000     0          
O        O      0.666666666667     0.121775000000     0.191430000000     0          
O        O      0.896990000000     0.193900000000     0.514350000000     0          
O        O      0.965553333333     0.201960000000     0.515550000000     0          
O        O      0.939420000000     0.151035000000     0.611460000000     0          
O        O      0.666666666667     0.122230000000     0.617760000000     0          
O        O      0.939960000000     0.092570000000     0.623890000000     0          
O        O      0.666666666667     0.213265000000     0.350500000000     0          
O        O      0.945986666667     0.250000000000     0.354500000000     0          
O        O      0.833333333333     0.212830000000     0.275370000000     0          
O        O      0.875123333333     0.208775000000     0.221740000000     0          
O        O      0.886803333333     0.250000000000     0.269460000000     0          
O        O      0.897803333333     0.191120000000     0.161700000000     0          
O        O      0.965530000000     0.198500000000     0.165380000000     0          
O        O      0.898573333333     0.057295000000     0.140690000000     0          
O        O      0.965703333333     0.048025000000     0.134110000000     0          
O        O      0.887073333333     0.250000000000     0.534440000000     0          
O        O      0.833333333333     0.213240000000     0.527060000000     0          
O        O      0.877420000000     0.205630000000     0.578600000000     0          
O        O      0.885743333333     0.250000000000     0.173700000000     0          
O        O      0.833333333333     0.211630000000     0.168270000000     0          
O        O      0.833333333333     0.039505000000     0.130160000000     0          
O        O      0.884606666667     0.000000000000     0.123750000000     0          
O        O      0.666666666667     0.051980000000     0.404380000000     0          
O        O      0.666666666667     0.214950000000     0.221090000000     0          
O        O      0.666666666667     0.200930000000     0.574690000000     0          
T        Si     0.936663333333     0.427615000000     0.339600000000     0          
T        Si     0.936326666667     0.428115000000     0.467370000000     0          
T        Si     0.873403333333     0.465195000000     0.363240000000     0          
T        Si     0.958763333333     0.388720000000     0.403300000000     0          
T        Si     0.959050000000     0.384590000000     0.281510000000     0          
T        Si     0.873410000000     0.465350000000     0.443550000000     0          
T        Si     0.960306666667     0.383240000000     0.522720000000     0          
T        Si     0.960090000000     0.321535000000     0.426370000000     0          
T        Si     0.934843333333     0.318200000000     0.297790000000     0          
T        Si     0.959016666667     0.382470000000     0.200060000000     0          
T        Si     0.934120000000     0.318535000000     0.500600000000     0          
T        Si     0.960130000000     0.380260000000     0.604360000000     0          
T        Si     0.959263333333     0.284310000000     0.360910000000     0          
T        Si     0.873280000000     0.284135000000     0.262410000000     0          
T        Si     0.934896666667     0.326300000000     0.160770000000     0          
T        Si     0.936380000000     0.426410000000     0.141290000000     0          
T        Si     0.873713333333     0.284515000000     0.538790000000     0          
T        Si     0.873280000000     0.284415000000     0.180990000000     0          
T        Si     0.873580000000     0.464930000000     0.118610000000     0          
O        O      0.942770000000     0.413225000000     0.301870000000     0          
O        O      0.965500000000     0.453785000000     0.345790000000     0          
O        O      0.898253333333     0.442720000000     0.341400000000     0          
O        O      0.940823333333     0.401795000000     0.368750000000     0          
O        O      0.897840000000     0.443080000000     0.466080000000     0          
O        O      0.965456666667     0.454325000000     0.463150000000     0          
O        O      0.941836666667     0.411770000000     0.504130000000     0          
O        O      0.940463333333     0.403915000000     0.436520000000     0          
O        O      0.876413333333     0.456330000000     0.403430000000     0          
O        O      0.952780000000     0.352515000000     0.405460000000     0          
O        O      0.938860000000     0.354490000000     0.294290000000     0          
O        O      0.954193333333     0.389195000000     0.240610000000     0          
O        O      0.960413333333     0.388150000000     0.563840000000     0          
O        O      0.938390000000     0.352990000000     0.513900000000     0          
O        O      0.954433333333     0.292960000000     0.400990000000     0          
O        O      0.934326666667     0.318460000000     0.459070000000     0          
O        O      0.937310000000     0.307860000000     0.337560000000     0          
O        O      0.965446666667     0.301835000000     0.276140000000     0          
O        O      0.897176666667     0.308260000000     0.282890000000     0          
O        O      0.938026666667     0.351825000000     0.190390000000     0          
O        O      0.943440000000     0.410440000000     0.178030000000     0          
O        O      0.896990000000     0.306100000000     0.514350000000     0          
O        O      0.965553333333     0.298040000000     0.515550000000     0          
O        O      0.939420000000     0.348965000000     0.611460000000     0          
O        O      0.939960000000     0.407430000000     0.623890000000     0          
O        O      0.875123333333     0.291225000000     0.221740000000     0          
O        O      0.897803333333     0.308880000000     0.161700000000     0          
O        O      0.965530000000     0.301500000000     0.165380000000     0          
O        O      0.898573333333     0.442705000000     0.140690000000     0          
O        O      0.965703333333     0.451975000000     0.134110000000     0          
O        O      0.877420000000     0.294370000000     0.578600000000     0          
T        Si     0.730003333333     0.072385000000     0.339600000000     0          
T        Si     0.730340000000     0.071885000000     0.467370000000     0          
T        Si     0.793263333333     0.034805000000     0.363240000000     0          
T        Si     0.707903333333     0.111280000000     0.403300000000     0          
T        Si     0.707616666667     0.115410000000     0.281510000000     0          
T        Si     0.793256666667     0.034650000000     0.443550000000     0          
T        Si     0.706360000000     0.116760000000     0.522720000000     0          
T        Si     0.706576666667     0.178465000000     0.426370000000     0          
T        Si     0.731823333333     0.181800000000     0.297790000000     0          
T        Si     0.707650000000     0.117530000000     0.200060000000     0          
T        Si     0.732546666667     0.181465000000     0.500600000000     0          
T        Si     0.706536666667     0.119740000000     0.604360000000     0          
T        Si     0.707403333333     0.215690000000     0.360910000000     0          
T        Si     0.793386666667     0.215865000000     0.262410000000     0          
T        Si     0.731770000000     0.173700000000     0.160770000000     0          
T        Si     0.730286666667     0.073590000000     0.141290000000     0          
T        Si     0.792953333333     0.215485000000     0.538790000000     0          
T        Si     0.793386666667     0.215585000000     0.180990000000     0          
T        Si     0.793086666667     0.035070000000     0.118610000000     0          
O        O      0.723896666667     0.086775000000     0.301870000000     0          
O        O      0.701166666667     0.046215000000     0.345790000000     0          
O        O      0.768413333333     0.057280000000     0.341400000000     0          
O        O      0.725843333333     0.098205000000     0.368750000000     0          
O        O      0.768826666667     0.056920000000     0.466080000000     0          
O        O      0.701210000000     0.045675000000     0.463150000000     0          
O        O      0.724830000000     0.088230000000     0.504130000000     0          
O        O      0.726203333333     0.096085000000     0.436520000000     0          
O        O      0.790253333333     0.043670000000     0.403430000000     0          
O        O      0.713886666667     0.147485000000     0.405460000000     0          
O        O      0.727806666667     0.145510000000     0.294290000000     0          
O        O      0.712473333333     0.110805000000     0.240610000000     0          
O        O      0.706253333333     0.111850000000     0.563840000000     0          
O        O      0.728276666667     0.147010000000     0.513900000000     0          
O        O      0.712233333333     0.207040000000     0.400990000000     0          
O        O      0.732340000000     0.181540000000     0.459070000000     0          
O        O      0.729356666667     0.192140000000     0.337560000000     0          
O        O      0.701220000000     0.198165000000     0.276140000000     0          
O        O      0.769490000000     0.191740000000     0.282890000000     0          
O        O      0.728640000000     0.148175000000     0.190390000000     0          
O        O      0.723226666667     0.089560000000     0.178030000000     0          
O        O      0.769676666667     0.193900000000     0.514350000000     0          
O        O      0.701113333333     0.201960000000     0.515550000000     0          
O        O      0.727246666667     0.151035000000     0.611460000000     0          
O        O      0.726706666667     0.092570000000     0.623890000000     0          
O        O      0.791543333333     0.208775000000     0.221740000000     0          
O        O      0.768863333333     0.191120000000     0.161700000000     0          
O        O      0.701136666667     0.198500000000     0.165380000000     0          
O        O      0.768093333333     0.057295000000     0.140690000000     0          
O        O      0.700963333333     0.048025000000     0.134110000000     0          
O        O      0.789246666667     0.205630000000     0.578600000000     0          
T        Si     0.730003333333     0.677615000000     0.839600000000     0          
T        Si     0.730340000000     0.678115000000     0.967370000000     0          
T        Si     0.793263333333     0.715195000000     0.863240000000     0          
T        Si     0.707903333333     0.638720000000     0.903300000000     0          
T        Si     0.707616666667     0.634590000000     0.781510000000     0          
T        Si     0.793256666667     0.715350000000     0.943550000000     0          
T        Si     0.706360000000     0.633240000000     0.022720000000     0          
T        Si     0.706576666667     0.571535000000     0.926370000000     0          
T        Si     0.731823333333     0.568200000000     0.797790000000     0          
T        Si     0.707650000000     0.632470000000     0.700060000000     0          
T        Si     0.732546666667     0.568535000000     0.000600000000     0          
T        Si     0.706536666667     0.630260000000     0.104360000000     0          
T        Si     0.707403333333     0.534310000000     0.860910000000     0          
T        Si     0.793386666667     0.534135000000     0.762410000000     0          
T        Si     0.731770000000     0.576300000000     0.660770000000     0          
T        Si     0.730286666667     0.676410000000     0.641290000000     0          
T        Si     0.792953333333     0.534515000000     0.038790000000     0          
T        Si     0.793386666667     0.534415000000     0.680990000000     0          
T        Si     0.793086666667     0.714930000000     0.618610000000     0          
T        Si     0.666666666667     0.713730000000     0.866810000000     0          
T        Si     0.666666666667     0.713785000000     0.941920000000     0          
T        Si     0.666666666667     0.534665000000     0.762580000000     0          
T        Si     0.666666666667     0.536535000000     0.035640000000     0          
T        Si     0.666666666667     0.534655000000     0.679630000000     0          
T        Si     0.666666666667     0.713470000000     0.613740000000     0          
O        O      0.723896666667     0.663225000000     0.801870000000     0          
O        O      0.701166666667     0.703785000000     0.845790000000     0          
O        O      0.768413333333     0.692720000000     0.841400000000     0          
O        O      0.725843333333     0.651795000000     0.868750000000     0          
O        O      0.768826666667     0.693080000000     0.966080000000     0          
O        O      0.701210000000     0.704325000000     0.963150000000     0          
O        O      0.724830000000     0.661770000000     0.004130000000     0          
O        O      0.726203333333     0.653915000000     0.936520000000     0          
O        O      0.781350000000     0.750000000000     0.857820000000     0          
O        O      0.833333333333     0.711260000000     0.850950000000     0          
O        O      0.790253333333     0.706330000000     0.903430000000     0          
O        O      0.713886666667     0.602515000000     0.905460000000     0          
O        O      0.666666666667     0.646340000000     0.903210000000     0          
O        O      0.727806666667     0.604490000000     0.794290000000     0          
O        O      0.712473333333     0.639195000000     0.740610000000     0          
O        O      0.666666666667     0.631540000000     0.790790000000     0          
O        O      0.833333333333     0.711975000000     0.955970000000     0          
O        O      0.780696666667     0.750000000000     0.948780000000     0          
O        O      0.706253333333     0.638150000000     0.063840000000     0          
O        O      0.666666666667     0.629790000000     0.009170000000     0          
O        O      0.728276666667     0.602990000000     0.013900000000     0          
O        O      0.712233333333     0.542960000000     0.900990000000     0          
O        O      0.666666666667     0.571585000000     0.939890000000     0          
O        O      0.732340000000     0.568460000000     0.959070000000     0          
O        O      0.729356666667     0.557860000000     0.837560000000     0          
O        O      0.701220000000     0.551835000000     0.776140000000     0          
O        O      0.769490000000     0.558260000000     0.782890000000     0          
O        O      0.728640000000     0.601825000000     0.690390000000     0          
O        O      0.723226666667     0.660440000000     0.678030000000     0          
O        O      0.666666666667     0.628225000000     0.691430000000     0          
O        O      0.769676666667     0.556100000000     0.014350000000     0          
O        O      0.701113333333     0.548040000000     0.015550000000     0          
O        O      0.727246666667     0.598965000000     0.111460000000     0          
O        O      0.666666666667     0.627770000000     0.117760000000     0          
O        O      0.726706666667     0.657430000000     0.123890000000     0          
O        O      0.666666666667     0.536735000000     0.850500000000     0          
O        O      0.720680000000     0.500000000000     0.854500000000     0          
O        O      0.833333333333     0.537170000000     0.775370000000     0          
O        O      0.791543333333     0.541225000000     0.721740000000     0          
O        O      0.779863333333     0.500000000000     0.769460000000     0          
O        O      0.768863333333     0.558880000000     0.661700000000     0          
O        O      0.701136666667     0.551500000000     0.665380000000     0          
O        O      0.768093333333     0.692705000000     0.640690000000     0          
O        O      0.700963333333     0.701975000000     0.634110000000     0          
O        O      0.779593333333     0.500000000000     0.034440000000     0          
O        O      0.833333333333     0.536760000000     0.027060000000     0          
O        O      0.789246666667     0.544370000000     0.078600000000     0          
O        O      0.780923333333     0.500000000000     0.673700000000     0          
O        O      0.833333333333     0.538370000000     0.668270000000     0          
O        O      0.833333333333     0.710495000000     0.630160000000     0          
O        O      0.782060000000     0.750000000000     0.623750000000     0          
O        O      0.666666666667     0.750000000000     0.871910000000     0          
O        O      0.666666666667     0.698020000000     0.904380000000     0          
O        O      0.666666666667     0.750000000000     0.936370000000     0          
O        O      0.666666666667     0.500000000000     0.775950000000     0          
O        O      0.666666666667     0.535050000000     0.721090000000     0          
O        O      0.666666666667     0.500000000000     0.036380000000     0          
O        O      0.666666666667     0.549070000000     0.074690000000     0          
O        O      0.666666666667     0.500000000000     0.666220000000     0          
O        O      0.666666666667     0.750000000000     0.613000000000     0          
T        Si     0.936663333333     0.822385000000     0.839600000000     0          
T        Si     0.936326666667     0.821885000000     0.967370000000     0          
T        Si     0.873403333333     0.784805000000     0.863240000000     0          
T        Si     0.958763333333     0.861280000000     0.903300000000     0          
T        Si     0.959050000000     0.865410000000     0.781510000000     0          
T        Si     0.873410000000     0.784650000000     0.943550000000     0          
T        Si     0.960306666667     0.866760000000     0.022720000000     0          
T        Si     0.960090000000     0.928465000000     0.926370000000     0          
T        Si     0.934843333333     0.931800000000     0.797790000000     0          
T        Si     0.959016666667     0.867530000000     0.700060000000     0          
T        Si     0.934120000000     0.931465000000     0.000600000000     0          
T        Si     0.960130000000     0.869740000000     0.104360000000     0          
T        Si     0.959263333333     0.965690000000     0.860910000000     0          
T        Si     0.873280000000     0.965865000000     0.762410000000     0          
T        Si     0.934896666667     0.923700000000     0.660770000000     0          
T        Si     0.936380000000     0.823590000000     0.641290000000     0          
T        Si     0.873713333333     0.965485000000     0.038790000000     0          
T        Si     0.873280000000     0.965585000000     0.680990000000     0          
T        Si     0.873580000000     0.785070000000     0.618610000000     0          
T        Si     0.666666666667     0.786270000000     0.866810000000     0          
T        Si     0.666666666667     0.786215000000     0.941920000000     0          
T        Si     0.666666666667     0.965335000000     0.762580000000     0          
T        Si     0.666666666667     0.963465000000     0.035640000000     0          
T        Si     0.666666666667     0.965345000000     0.679630000000     0          
T        Si     0.666666666667     0.786530000000     0.613740000000     0          
O        O      0.942770000000     0.836775000000     0.801870000000     0          
O        O      0.965500000000     0.796215000000     0.845790000000     0          
O        O      0.898253333333     0.807280000000     0.841400000000     0          
O        O      0.940823333333     0.848205000000     0.868750000000     0          
O        O      0.897840000000     0.806920000000     0.966080000000     0          
O        O      0.965456666667     0.795675000000     0.963150000000     0          
O        O      0.941836666667     0.838230000000     0.004130000000     0          
O        O      0.940463333333     0.846085000000     0.936520000000     0          
O        O      0.885316666667     0.750000000000     0.857820000000     0          
O        O      0.833333333333     0.788740000000     0.850950000000     0          
O        O      0.876413333333     0.793670000000     0.903430000000     0          
O        O      0.952780000000     0.897485000000     0.905460000000     0          
O        O      0.666666666667     0.853660000000     0.903210000000     0          
O        O      0.938860000000     0.895510000000     0.794290000000     0          
O        O      0.954193333333     0.860805000000     0.740610000000     0          
O        O      0.666666666667     0.868460000000     0.790790000000     0          
O        O      0.833333333333     0.788025000000     0.955970000000     0          
O        O      0.885970000000     0.750000000000     0.948780000000     0          
O        O      0.960413333333     0.861850000000     0.063840000000     0          
O        O      0.666666666667     0.870210000000     0.009170000000     0          
O        O      0.938390000000     0.897010000000     0.013900000000     0          
O        O      0.954433333333     0.957040000000     0.900990000000     0          
O        O      0.666666666667     0.928415000000     0.939890000000     0          
O        O      0.934326666667     0.931540000000     0.959070000000     0          
O        O      0.937310000000     0.942140000000     0.837560000000     0          
O        O      0.965446666667     0.948165000000     0.776140000000     0          
O        O      0.897176666667     0.941740000000     0.782890000000     0          
O        O      0.938026666667     0.898175000000     0.690390000000     0          
O        O      0.943440000000     0.839560000000     0.678030000000     0          
O        O      0.666666666667     0.871775000000     0.691430000000     0          
O        O      0.896990000000     0.943900000000     0.014350000000     0          
O        O      0.965553333333     0.951960000000     0.015550000000     0          
O        O      0.939420000000     0.901035000000     0.111460000000     0          
O        O      0.666666666667     0.872230000000     0.117760000000     0          
O        O      0.939960000000     0.842570000000     0.123890000000     0          
O        O      0.666666666667     0.963265000000     0.850500000000     0          
O        O      0.945986666667     0.500000000000     0.854500000000     0          
O        O      0.833333333333     0.962830000000     0.775370000000     0          
O        O      0.875123333333     0.958775000000     0.721740000000     0          
O        O      0.886803333333     0.500000000000     0.769460000000     0          
O        O      0.897803333333     0.941120000000     0.661700000000     0          
O        O      0.965530000000     0.948500000000     0.665380000000     0          
O        O      0.898573333333     0.807295000000     0.640690000000     0          
O        O      0.965703333333     0.798025000000     0.634110000000     0          
O        O      0.887073333333     0.500000000000     0.034440000000     0          
O        O      0.833333333333     0.963240000000     0.027060000000     0          
O        O      0.877420000000     0.955630000000     0.078600000000     0          
O        O      0.885743333333     0.500000000000     0.673700000000     0          
O        O      0.833333333333     0.961630000000     0.668270000000     0          
O        O      0.833333333333     0.789505000000     0.630160000000     0          
O        O      0.884606666667     0.750000000000     0.623750000000     0          
O        O      0.666666666667     0.801980000000     0.904380000000     0          
O        O      0.666666666667     0.964950000000     0.721090000000     0          
O        O      0.666666666667     0.950930000000     0.074690000000     0          
T        Si     0.936663333333     0.677615000000     0.839600000000     0          
T        Si     0.936326666667     0.678115000000     0.967370000000     0          
T        Si     0.873403333333     0.715195000000     0.863240000000     0          
T        Si     0.958763333333     0.638720000000     0.903300000000     0          
T        Si     0.959050000000     0.634590000000     0.781510000000     0          
T        Si     0.873410000000     0.715350000000     0.943550000000     0          
T        Si     0.960306666667     0.633240000000     0.022720000000     0          
T        Si     0.960090000000     0.571535000000     0.926370000000     0          
T        Si     0.934843333333     0.568200000000     0.797790000000     0          
T        Si     0.959016666667     0.632470000000     0.700060000000     0          
T        Si     0.934120000000     0.568535000000     0.000600000000     0          
T        Si     0.960130000000     0.630260000000     0.104360000000     0          
T        Si     0.959263333333     0.534310000000     0.860910000000     0          
T        Si     0.873280000000     0.534135000000     0.762410000000     0          
T        Si     0.934896666667     0.576300000000     0.660770000000     0          
T        Si     0.936380000000     0.676410000000     0.641290000000     0          
T        Si     0.873713333333     0.534515000000     0.038790000000     0          
T        Si     0.873280000000     0.534415000000     0.680990000000     0          
T        Si     0.873580000000     0.714930000000     0.618610000000     0          
O        O      0.942770000000     0.663225000000     0.801870000000     0          
O        O      0.965500000000     0.703785000000     0.845790000000     0          
O        O      0.898253333333     0.692720000000     0.841400000000     0          
O        O      0.940823333333     0.651795000000     0.868750000000     0          
O        O      0.897840000000     0.693080000000     0.966080000000     0          
O        O      0.965456666667     0.704325000000     0.963150000000     0          
O        O      0.941836666667     0.661770000000     0.004130000000     0          
O        O      0.940463333333     0.653915000000     0.936520000000     0          
O        O      0.876413333333     0.706330000000     0.903430000000     0          
O        O      0.952780000000     0.602515000000     0.905460000000     0          
O        O      0.938860000000     0.604490000000     0.794290000000     0          
O        O      0.954193333333     0.639195000000     0.740610000000     0          
O        O      0.960413333333     0.638150000000     0.063840000000     0          
O        O      0.938390000000     0.602990000000     0.013900000000     0          
O        O      0.954433333333     0.542960000000     0.900990000000     0          
O        O      0.934326666667     0.568460000000     0.959070000000     0          
O        O      0.937310000000     0.557860000000     0.837560000000     0          
O        O      0.965446666667     0.551835000000     0.776140000000     0          
O        O      0.897176666667     0.558260000000     0.782890000000     0          
O        O      0.938026666667     0.601825000000     0.690390000000     0          
O        O      0.943440000000     0.660440000000     0.678030000000     0          
O        O      0.896990000000     0.556100000000     0.014350000000     0          
O        O      0.965553333333     0.548040000000     0.015550000000     0          
O        O      0.939420000000     0.598965000000     0.111460000000     0          
O        O      0.939960000000     0.657430000000     0.123890000000     0          
O        O      0.875123333333     0.541225000000     0.721740000000     0          
O        O      0.897803333333     0.558880000000     0.661700000000     0          
O        O      0.965530000000     0.551500000000     0.665380000000     0          
O        O      0.898573333333     0.692705000000     0.640690000000     0          
O        O      0.965703333333     0.701975000000     0.634110000000     0          
O        O      0.877420000000     0.544370000000     0.078600000000     0          
T        Si     0.730003333333     0.822385000000     0.839600000000     0          
T        Si     0.730340000000     0.821885000000     0.967370000000     0          
T        Si     0.793263333333     0.784805000000     0.863240000000     0          
T        Si     0.707903333333     0.861280000000     0.903300000000     0          
T        Si     0.707616666667     0.865410000000     0.781510000000     0          
T        Si     0.793256666667     0.784650000000     0.943550000000     0          
T        Si     0.706360000000     0.866760000000     0.022720000000     0          
T        Si     0.706576666667     0.928465000000     0.926370000000     0          
T        Si     0.731823333333     0.931800000000     0.797790000000     0          
T        Si     0.707650000000     0.867530000000     0.700060000000     0          
T        Si     0.732546666667     0.931465000000     0.000600000000     0          
T        Si     0.706536666667     0.869740000000     0.104360000000     0          
T        Si     0.707403333333     0.965690000000     0.860910000000     0          
T        Si     0.793386666667     0.965865000000     0.762410000000     0          
T        Si     0.731770000000     0.923700000000     0.660770000000     0          
T        Si     0.730286666667     0.823590000000     0.641290000000     0          
T        Si     0.792953333333     0.965485000000     0.038790000000     0          
T        Si     0.793386666667     0.965585000000     0.680990000000     0          
T        Si     0.793086666667     0.785070000000     0.618610000000     0          
O        O      0.723896666667     0.836775000000     0.801870000000     0          
O        O      0.701166666667     0.796215000000     0.845790000000     0          
O        O      0.768413333333     0.807280000000     0.841400000000     0          
O        O      0.725843333333     0.848205000000     0.868750000000     0          
O        O      0.768826666667     0.806920000000     0.966080000000     0          
O        O      0.701210000000     0.795675000000     0.963150000000     0          
O        O      0.724830000000     0.838230000000     0.004130000000     0          
O        O      0.726203333333     0.846085000000     0.936520000000     0          
O        O      0.790253333333     0.793670000000     0.903430000000     0          
O        O      0.713886666667     0.897485000000     0.905460000000     0          
O        O      0.727806666667     0.895510000000     0.794290000000     0          
O        O      0.712473333333     0.860805000000     0.740610000000     0          
O        O      0.706253333333     0.861850000000     0.063840000000     0          
O        O      0.728276666667     0.897010000000     0.013900000000     0          
O        O      0.712233333333     0.957040000000     0.900990000000     0          
O        O      0.732340000000     0.931540000000     0.959070000000     0          
O        O      0.729356666667     0.942140000000     0.837560000000     0          
O        O      0.701220000000     0.948165000000     0.776140000000     0          
O        O      0.769490000000     0.941740000000     0.782890000000     0          
O        O      0.728640000000     0.898175000000     0.690390000000     0          
O        O      0.723226666667     0.839560000000     0.678030000000     0          
O        O      0.769676666667     0.943900000000     0.014350000000     0          
O        O      0.701113333333     0.951960000000     0.015550000000     0          
O        O      0.727246666667     0.901035000000     0.111460000000     0          
O        O      0.726706666667     0.842570000000     0.123890000000     0          
O        O      0.791543333333     0.958775000000     0.721740000000     0          
O        O      0.768863333333     0.941120000000     0.661700000000     0          
O        O      0.701136666667     0.948500000000     0.665380000000     0          
O        O      0.768093333333     0.807295000000     0.640690000000     0          
O        O      0.700963333333     0.798025000000     0.634110000000     0          
O        O      0.789246666667     0.955630000000     0.078600000000     0          
T        Si     0.730003333333     0.927615000000     0.339600000000     0          
T        Si     0.730340000000     0.928115000000     0.467370000000     0          
T        Si     0.793263333333     0.965195000000     0.363240000000     0          
T        Si     0.707903333333     0.888720000000     0.403300000000     0          
T        Si     0.707616666667     0.884590000000     0.281510000000     0          
T        Si     0.793256666667     0.965350000000     0.443550000000     0          
T        Si     0.706360000000     0.883240000000     0.522720000000     0          
T        Si     0.706576666667     0.821535000000     0.426370000000     0          
T        Si     0.731823333333     0.818200000000     0.297790000000     0          
T        Si     0.707650000000     0.882470000000     0.200060000000     0          
T        Si     0.732546666667     0.818535000000     0.500600000000     0          
T        Si     0.706536666667     0.880260000000     0.604360000000     0          
T        Si     0.707403333333     0.784310000000     0.360910000000     0          
T        Si     0.793386666667     0.784135000000     0.262410000000     0          
T        Si     0.731770000000     0.826300000000     0.160770000000     0          
T        Si     0.730286666667     0.926410000000     0.141290000000     0          
T        Si     0.792953333333     0.784515000000     0.538790000000     0          
T        Si     0.793386666667     0.784415000000     0.180990000000     0          
T        Si     0.793086666667     0.964930000000     0.118610000000     0          
T        Si     0.666666666667     0.963730000000     0.366810000000     0          
T        Si     0.666666666667     0.963785000000     0.441920000000     0          
T        Si     0.666666666667     0.784665000000     0.262580000000     0          
T        Si     0.666666666667     0.786535000000     0.535640000000     0          
T        Si     0.666666666667     0.784655000000     0.179630000000     0          
T        Si     0.666666666667     0.963470000000     0.113740000000     0          
O        O      0.723896666667     0.913225000000     0.301870000000     0          
O        O      0.701166666667     0.953785000000     0.345790000000     0          
O        O      0.768413333333     0.942720000000     0.341400000000     0          
O        O      0.725843333333     0.901795000000     0.368750000000     0          
O        O      0.768826666667     0.943080000000     0.466080000000     0          
O        O      0.701210000000     0.954325000000     0.463150000000     0          
O        O      0.724830000000     0.911770000000     0.504130000000     0          
O        O      0.726203333333     0.903915000000     0.436520000000     0          
O        O      0.781350000000     0.500000000000     0.357820000000     0          
O        O      0.833333333333     0.961260000000     0.350950000000     0          
O        O      0.790253333333     0.956330000000     0.403430000000     0          
O        O      0.713886666667     0.852515000000     0.405460000000     0          
O        O      0.666666666667     0.896340000000     0.403210000000     0          
O        O      0.727806666667     0.854490000000     0.294290000000     0          
O        O      0.712473333333     0.889195000000     0.240610000000     0          
O        O      0.666666666667     0.881540000000     0.290790000000     0          
O        O      0.833333333333     0.961975000000     0.455970000000     0          
O        O      0.780696666667     0.500000000000     0.448780000000     0          
O        O      0.706253333333     0.888150000000     0.563840000000     0          
O        O      0.666666666667     0.879790000000     0.509170000000     0          
O        O      0.728276666667     0.852990000000     0.513900000000     0          
O        O      0.712233333333     0.792960000000     0.400990000000     0          
O        O      0.666666666667     0.821585000000     0.439890000000     0          
O        O      0.732340000000     0.818460000000     0.459070000000     0          
O        O      0.729356666667     0.807860000000     0.337560000000     0          
O        O      0.701220000000     0.801835000000     0.276140000000     0          
O        O      0.769490000000     0.808260000000     0.282890000000     0          
O        O      0.728640000000     0.851825000000     0.190390000000     0          
O        O      0.723226666667     0.910440000000     0.178030000000     0          
O        O      0.666666666667     0.878225000000     0.191430000000     0          
O        O      0.769676666667     0.806100000000     0.514350000000     0          
O        O      0.701113333333     0.798040000000     0.515550000000     0          
O        O      0.727246666667     0.848965000000     0.611460000000     0          
O        O      0.666666666667     0.877770000000     0.617760000000     0          
O        O      0.726706666667     0.907430000000     0.623890000000     0          
O        O      0.666666666667     0.786735000000     0.350500000000     0          
O        O      0.720680000000     0.750000000000     0.354500000000     0          
O        O      0.833333333333     0.787170000000     0.275370000000     0          
O        O      0.791543333333     0.791225000000     0.221740000000     0          
O        O      0.779863333333     0.750000000000     0.269460000000     0          
O        O      0.768863333333     0.808880000000     0.161700000000     0          
O        O      0.701136666667     0.801500000000     0.165380000000     0          
O        O      0.768093333333     0.942705000000     0.140690000000     0          
O        O      0.700963333333     0.951975000000     0.134110000000     0          
O        O      0.779593333333     0.750000000000     0.534440000000     0          
O        O      0.833333333333     0.786760000000     0.527060000000     0          
O        O      0.789246666667     0.794370000000     0.578600000000     0          
O        O      0.780923333333     0.750000000000     0.173700000000     0          
O        O      0.833333333333     0.788370000000     0.168270000000     0          
O        O      0.833333333333     0.960495000000     0.130160000000     0          
O        O      0.782060000000     0.500000000000     0.123750000000     0          
O        O      0.666666666667     0.500000000000     0.371910000000     0          
O        O      0.666666666667     0.948020000000     0.404380000000     0          
O        O      0.666666666667     0.500000000000     0.436370000000     0          
O        O      0.666666666667     0.750000000000     0.275950000000     0          
O        O      0.666666666667     0.785050000000     0.221090000000     0          
O        O      0.666666666667     0.750000000000     0.536380000000     0          
O        O      0.666666666667     0.799070000000     0.574690000000     0          
O        O      0.666666666667     0.750000000000     0.166220000000     0          
O        O      0.666666666667     0.500000000000     0.113000000000     0          
T        Si     0.936663333333     0.572385000000     0.339600000000     0          
T        Si     0.936326666667     0.571885000000     0.467370000000     0          
T        Si     0.873403333333     0.534805000000     0.363240000000     0          
T        Si     0.958763333333     0.611280000000     0.403300000000     0          
T        Si     0.959050000000     0.615410000000     0.281510000000     0          
T        Si     0.873410000000     0.534650000000     0.443550000000     0          
T        Si     0.960306666667     0.616760000000     0.522720000000     0          
T        Si     0.960090000000     0.678465000000     0.426370000000     0          
T        Si     0.934843333333     0.681800000000     0.297790000000     0          
T        Si     0.959016666667     0.617530000000     0.200060000000     0          
T        Si     0.934120000000     0.681465000000     0.500600000000     0          
T        Si     0.960130000000     0.619740000000     0.604360000000     0          
T        Si     0.959263333333     0.715690000000     0.360910000000     0          
T        Si     0.873280000000     0.715865000000     0.262410000000     0          
T        Si     0.934896666667     0.673700000000     0.160770000000     0          
T        Si     0.936380000000     0.573590000000     0.141290000000     0          
T        Si     0.873713333333     0.715485000000     0.538790000000     0          
T        Si     0.873280000000     0.715585000000     0.180990000000     0          
T        Si     0.873580000000     0.535070000000     0.118610000000     0          
T        Si     0.666666666667     0.536270000000     0.366810000000     0          
T        Si     0.666666666667     0.536215000000     0.441920000000     0          
T        Si     0.666666666667     0.715335000000     0.262580000000     0          
T        Si     0.666666666667     0.713465000000     0.535640000000     0          
T        Si     0.666666666667     0.715345000000     0.179630000000     0          
T        Si     0.666666666667     0.536530000000     0.113740000000     0          
O        O      0.942770000000     0.586775000000     0.301870000000     0          
O        O      0.965500000000     0.546215000000     0.345790000000     0          
O        O      0.898253333333     0.557280000000     0.341400000000     0          
O        O      0.940823333333     0.598205000000     0.368750000000     0          
O        O      0.897840000000     0.556920000000     0.466080000000     0          
O        O      0.965456666667     0.545675000000     0.463150000000     0          
O        O      0.941836666667     0.588230000000     0.504130000000     0          
O        O      0.940463333333     0.596085000000     0.436520000000     0          
O        O      0.885316666667     0.500000000000     0.357820000000     0          
O        O      0.833333333333     0.538740000000     0.350950000000     0          
O        O      0.876413333333     0.543670000000     0.403430000000     0          
O        O      0.952780000000     0.647485000000     0.405460000000     0          
O        O      0.666666666667     0.603660000000     0.403210000000     0          
O        O      0.938860000000     0.645510000000     0.294290000000     0          
O        O      0.954193333333     0.610805000000     0.240610000000     0          
O        O      0.666666666667     0.618460000000     0.290790000000     0          
O        O      0.833333333333     0.538025000000     0.455970000000     0          
O        O      0.885970000000     0.500000000000     0.448780000000     0          
O        O      0.960413333333     0.611850000000     0.563840000000     0          
O        O      0.666666666667     0.620210000000     0.509170000000     0          
O        O      0.938390000000     0.647010000000     0.513900000000     0          
O        O      0.954433333333     0.707040000000     0.400990000000     0          
O        O      0.666666666667     0.678415000000     0.439890000000     0          
O        O      0.934326666667     0.681540000000     0.459070000000     0          
O        O      0.937310000000     0.692140000000     0.337560000000     0          
O        O      0.965446666667     0.698165000000     0.276140000000     0          
O        O      0.897176666667     0.691740000000     0.282890000000     0          
O        O      0.938026666667     0.648175000000     0.190390000000     0          
O        O      0.943440000000     0.589560000000     0.178030000000     0          
O        O      0.666666666667     0.621775000000     0.191430000000     0          
O        O      0.896990000000     0.693900000000     0.514350000000     0          
O        O      0.965553333333     0.701960000000     0.515550000000     0          
O        O      0.939420000000     0.651035000000     0.611460000000     0          
O        O      0.666666666667     0.622230000000     0.617760000000     0          
O        O      0.939960000000     0.592570000000     0.623890000000     0          
O        O      0.666666666667     0.713265000000     0.350500000000     0          
O        O      0.945986666667     0.750000000000     0.354500000000     0          
O        O      0.833333333333     0.712830000000     0.275370000000     0          
O        O      0.875123333333     0.708775000000     0.221740000000     0          
O        O      0.886803333333     0.750000000000     0.269460000000     0          
O        O      0.897803333333     0.691120000000     0.161700000000     0          
O        O      0.965530000000     0.698500000000     0.165380000000     0          
O        O      0.898573333333     0.557295000000     0.140690000000     0          
O        O      0.965703333333     0.548025000000     0.134110000000     0          
O        O      0.887073333333     0.750000000000     0.534440000000     0          
O        O      0.833333333333     0.713240000000     0.527060000000     0          
O        O      0.877420000000     0.705630000000     0.578600000000     0          
O        O      0.885743333333     0.750000000000     0.173700000000     0          
O        O      0.833333333333     0.711630000000     0.168270000000     0          
O        O      0.833333333333     0.539505000000     0.130160000000     0          
O        O      0.884606666667     0.500000000000     0.123750000000     0          
O        O      0.666666666667     0.551980000000     0.404380000000     0          
O        O      0.666666666667     0.714950000000     0.221090000000     0          
O        O      0.666666666667     0.700930000000     0.574690000000     0          
T        Si     0.936663333333     0.927615000000     0.339600000000     0          
T        Si     0.936326666667     0.928115000000     0.467370000000     0          
T        Si     0.873403333333     0.965195000000     0.363240000000     0          
T        Si     0.958763333333     0.888720000000     0.403300000000     0          
T        Si     0.959050000000     0.884590000000     0.281510000000     0          
T        Si     0.873410000000     0.965350000000     0.443550000000     0          
T        Si     0.960306666667     0.883240000000     0.522720000000     0          
T        Si     0.960090000000     0.821535000000     0.426370000000     0          
T        Si     0.934843333333     0.818200000000     0.297790000000     0          
T        Si     0.959016666667     0.882470000000     0.200060000000     0          
T        Si     0.934120000000     0.818535000000     0.500600000000     0          
T        Si     0.960130000000     0.880260000000     0.604360000000     0          
T        Si     0.959263333333     0.784310000000     0.360910000000     0          
T        Si     0.873280000000     0.784135000000     0.262410000000     0          
T        Si     0.934896666667     0.826300000000     0.160770000000     0          
T        Si     0.936380000000     0.926410000000     0.141290000000     0          
T        Si     0.873713333333     0.784515000000     0.538790000000     0          
T        Si     0.873280000000     0.784415000000     0.180990000000     0          
T        Si     0.873580000000     0.964930000000     0.118610000000     0          
O        O      0.942770000000     0.913225000000     0.301870000000     0          
O        O      0.965500000000     0.953785000000     0.345790000000     0          
O        O      0.898253333333     0.942720000000     0.341400000000     0          
O        O      0.940823333333     0.901795000000     0.368750000000     0          
O        O      0.897840000000     0.943080000000     0.466080000000     0          
O        O      0.965456666667     0.954325000000     0.463150000000     0          
O        O      0.941836666667     0.911770000000     0.504130000000     0          
O        O      0.940463333333     0.903915000000     0.436520000000     0          
O        O      0.876413333333     0.956330000000     0.403430000000     0          
O        O      0.952780000000     0.852515000000     0.405460000000     0          
O        O      0.938860000000     0.854490000000     0.294290000000     0          
O        O      0.954193333333     0.889195000000     0.240610000000     0          
O        O      0.960413333333     0.888150000000     0.563840000000     0          
O        O      0.938390000000     0.852990000000     0.513900000000     0          
O        O      0.954433333333     0.792960000000     0.400990000000     0          
O        O      0.934326666667     0.818460000000     0.459070000000     0          
O        O      0.937310000000     0.807860000000     0.337560000000     0          
O        O      0.965446666667     0.801835000000     0.276140000000     0          
O        O      0.897176666667     0.808260000000     0.282890000000     0          
O        O      0.938026666667     0.851825000000     0.190390000000     0          
O        O      0.943440000000     0.910440000000     0.178030000000     0          
O        O      0.896990000000     0.806100000000     0.514350000000     0          
O        O      0.965553333333     0.798040000000     0.515550000000     0          
O        O      0.939420000000     0.848965000000     0.611460000000     0          
O        O      0.939960000000     0.907430000000     0.623890000000     0          
O        O      0.875123333333     0.791225000000     0.221740000000     0          
O        O      0.897803333333     0.808880000000     0.161700000000     0          
O        O      0.965530000000     0.801500000000     0.165380000000     0          
O        O      0.898573333333     0.942705000000     0.140690000000     0          
O        O      0.965703333333     0.951975000000     0.134110000000     0          
O        O      0.877420000000     0.794370000000     0.578600000000     0          
T        Si     0.730003333333     0.572385000000     0.339600000000     0          
T        Si     0.730340000000     0.571885000000     0.467370000000     0          
T        Si     0.793263333333     0.534805000000     0.363240000000     0          
T        Si     0.707903333333     0.611280000000     0.403300000000     0          
T        Si     0.707616666667     0.615410000000     0.281510000000     0          
T        Si     0.793256666667     0.534650000000     0.443550000000     0          
T        Si     0.706360000000     0.616760000000     0.522720000000     0          
T        Si     0.706576666667     0.678465000000     0.426370000000     0          
T        Si     0.731823333333     0.681800000000     0.297790000000     0          
T        Si     0.707650000000     0.617530000000     0.200060000000     0          
T        Si     0.732546666667     0.681465000000     0.500600000000     0          
T        Si     0.706536666667     0.619740000000     0.604360000000     0          
T        Si     0.707403333333     0.715690000000     0.360910000000     0          
T        Si     0.793386666667     0.715865000000     0.262410000000     0          
T        Si     0.731770000000     0.673700000000     0.160770000000     0          
T        Si     0.730286666667     0.573590000000     0.141290000000     0          
T        Si     0.792953333333     0.715485000000     0.538790000000     0          
T        Si     0.793386666667     0.715585000000     0.180990000000     0          
T        Si     0.793086666667     0.535070000000     0.118610000000     0          
O        O      0.723896666667     0.586775000000     0.301870000000     0          
O        O      0.701166666667     0.546215000000     0.345790000000     0          
O        O      0.768413333333     0.557280000000     0.341400000000     0          
O        O      0.725843333333     0.598205000000     0.368750000000     0          
O        O      0.768826666667     0.556920000000     0.466080000000     0          
O        O      0.701210000000     0.545675000000     0.463150000000     0          
O        O      0.724830000000     0.588230000000     0.504130000000     0          
O        O      0.726203333333     0.596085000000     0.436520000000     0          
O        O      0.790253333333     0.543670000000     0.403430000000     0          
O        O      0.713886666667     0.647485000000     0.405460000000     0          
O        O      0.727806666667     0.645510000000     0.294290000000     0          
O        O      0.712473333333     0.610805000000     0.240610000000     0          
O        O      0.706253333333     0.611850000000     0.563840000000     0          
O        O      0.728276666667     0.647010000000     0.513900000000     0          
O        O      0.712233333333     0.707040000000     0.400990000000     0          
O        O      0.732340000000     0.681540000000     0.459070000000     0          
O        O      0.729356666667     0.692140000000     0.337560000000     0          
O        O      0.701220000000     0.698165000000     0.276140000000     0          
O        O      0.769490000000     0.691740000000     0.282890000000     0          
O        O      0.728640000000     0.648175000000     0.190390000000     0          
O        O      0.723226666667     0.589560000000     0.178030000000     0          
O        O      0.769676666667     0.693900000000     0.514350000000     0          
O        O      0.701113333333     0.701960000000     0.515550000000     0          
O        O      0.727246666667     0.651035000000     0.611460000000     0          
O        O      0.726706666667     0.592570000000     0.623890000000     0          
O        O      0.791543333333     0.708775000000     0.221740000000     0          
O        O      0.768863333333     0.691120000000     0.161700000000     0          
O        O      0.701136666667     0.698500000000     0.165380000000     0          
O        O      0.768093333333     0.557295000000     0.140690000000     0          
O        O      0.700963333333     0.548025000000     0.134110000000     0          
O        O      0.789246666667     0.705630000000     0.578600000000     0          


