data_zeolite

_audit_creation_method RASPA-1.0
_audit_creation_date 2021-6-7
_audit_author_name ''

_cell_length_a    37.5322
_cell_length_b    37.5322
_cell_length_c    35.0818
_cell_angle_alpha 90
_cell_angle_beta  90
_cell_angle_gamma 90
_cell_volume      49418.6

_symmetry_cell_setting          tetragonal
_symmetry_space_group_name_Hall 'P 1'
_symmetry_space_group_name_H-M  'P 1'
_symmetry_Int_Tables_number     1

_symmetry_equiv_pos_as_xyz 'x,y,z'

loop_
_atom_site_label
_atom_site_type_symbol
_atom_site_fract_x
_atom_site_fract_y
_atom_site_fract_z
_atom_site_charge
T        Si     0.099375000000     0.006000000000     0.088653333333     0          
T        Si     0.130390000000     0.071860000000     0.123056666667     0          
T        Si     0.187395000000     0.129185000000     0.122910000000     0          
T        Si     0.028680000000     0.028680000000     0.045803333333     0          
T        Si     0.058490000000     0.001965000000     0.166666666667     0          
O        O      0.000000000000     0.000000000000     0.060836666667     0          
O        O      0.028630000000     0.028630000000     0.000000000000     0          
O        O      0.068055000000     0.018595000000     0.060403333333     0          
O        O      0.119545000000     0.472090000000     0.070690000000     0          
O        O      0.082420000000     0.495490000000     0.129256666667     0          
O        O      0.026565000000     0.473435000000     0.166666666667     0          
O        O      0.041340000000     0.041340000000     0.166666666667     0          
O        O      0.127530000000     0.037805000000     0.095283333333     0          
O        O      0.099765000000     0.099765000000     0.111263333333     0          
O        O      0.124855000000     0.059690000000     0.166666666667     0          
O        O      0.168655000000     0.090790000000     0.118550000000     0          
O        O      0.159900000000     0.159900000000     0.110243333333     0          
O        O      0.198880000000     0.135160000000     0.166666666667     0          
T        Si     0.244000000000     0.349375000000     0.255320000000     0          
T        Si     0.178140000000     0.380390000000     0.289723333333     0          
T        Si     0.120815000000     0.437395000000     0.289576666667     0          
T        Si     0.221320000000     0.278680000000     0.212470000000     0          
T        Si     0.248035000000     0.308490000000     0.000000000000     0          
O        O      0.250000000000     0.250000000000     0.227503333333     0          
O        O      0.221370000000     0.278630000000     0.166666666667     0          
O        O      0.231405000000     0.318055000000     0.227070000000     0          
O        O      0.277910000000     0.369545000000     0.237356666667     0          
O        O      0.254510000000     0.332420000000     0.295923333333     0          
O        O      0.276565000000     0.276565000000     0.000000000000     0          
O        O      0.208660000000     0.291340000000     0.000000000000     0          
O        O      0.212195000000     0.377530000000     0.261950000000     0          
O        O      0.150235000000     0.349765000000     0.277930000000     0          
O        O      0.190310000000     0.374855000000     0.000000000000     0          
O        O      0.159210000000     0.418655000000     0.285216666667     0          
O        O      0.090100000000     0.409900000000     0.276910000000     0          
O        O      0.114840000000     0.448880000000     0.000000000000     0          
T        Si     0.400625000000     0.494000000000     0.088653333333     0          
T        Si     0.369610000000     0.428140000000     0.123056666667     0          
T        Si     0.312605000000     0.370815000000     0.122910000000     0          
T        Si     0.471320000000     0.471320000000     0.045803333333     0          
T        Si     0.441510000000     0.498035000000     0.166666666667     0          
O        O      0.471370000000     0.471370000000     0.000000000000     0          
O        O      0.431945000000     0.481405000000     0.060403333333     0          
O        O      0.380455000000     0.027910000000     0.070690000000     0          
O        O      0.417580000000     0.004510000000     0.129256666667     0          
O        O      0.473435000000     0.026565000000     0.166666666667     0          
O        O      0.458660000000     0.458660000000     0.166666666667     0          
O        O      0.372470000000     0.462195000000     0.095283333333     0          
O        O      0.400235000000     0.400235000000     0.111263333333     0          
O        O      0.375145000000     0.440310000000     0.166666666667     0          
O        O      0.331345000000     0.409210000000     0.118550000000     0          
O        O      0.340100000000     0.340100000000     0.110243333333     0          
O        O      0.301120000000     0.364840000000     0.166666666667     0          
T        Si     0.256000000000     0.150625000000     0.255320000000     0          
T        Si     0.321860000000     0.119610000000     0.289723333333     0          
T        Si     0.379185000000     0.062605000000     0.289576666667     0          
T        Si     0.278680000000     0.221320000000     0.212470000000     0          
T        Si     0.251965000000     0.191510000000     0.000000000000     0          
O        O      0.278630000000     0.221370000000     0.166666666667     0          
O        O      0.268595000000     0.181945000000     0.227070000000     0          
O        O      0.222090000000     0.130455000000     0.237356666667     0          
O        O      0.245490000000     0.167580000000     0.295923333333     0          
O        O      0.223435000000     0.223435000000     0.000000000000     0          
O        O      0.291340000000     0.208660000000     0.000000000000     0          
O        O      0.287805000000     0.122470000000     0.261950000000     0          
O        O      0.349765000000     0.150235000000     0.277930000000     0          
O        O      0.309690000000     0.125145000000     0.000000000000     0          
O        O      0.340790000000     0.081345000000     0.285216666667     0          
O        O      0.409900000000     0.090100000000     0.276910000000     0          
O        O      0.385160000000     0.051120000000     0.000000000000     0          
T        Si     0.349375000000     0.244000000000     0.078013333333     0          
T        Si     0.380390000000     0.178140000000     0.043610000000     0          
T        Si     0.437395000000     0.120815000000     0.043756666667     0          
T        Si     0.278680000000     0.221320000000     0.120863333333     0          
T        Si     0.308490000000     0.248035000000     0.000000000000     0          
O        O      0.250000000000     0.250000000000     0.105830000000     0          
O        O      0.318055000000     0.231405000000     0.106263333333     0          
O        O      0.369545000000     0.277910000000     0.095976666667     0          
O        O      0.332420000000     0.254510000000     0.037410000000     0          
O        O      0.377530000000     0.212195000000     0.071383333333     0          
O        O      0.349765000000     0.150235000000     0.055403333333     0          
O        O      0.374855000000     0.190310000000     0.000000000000     0          
O        O      0.418655000000     0.159210000000     0.048116666667     0          
O        O      0.409900000000     0.090100000000     0.056423333333     0          
O        O      0.448880000000     0.114840000000     0.000000000000     0          
T        Si     0.006000000000     0.099375000000     0.244680000000     0          
T        Si     0.071860000000     0.130390000000     0.210276666667     0          
T        Si     0.129185000000     0.187395000000     0.210423333333     0          
T        Si     0.028680000000     0.028680000000     0.287530000000     0          
T        Si     0.001965000000     0.058490000000     0.166666666667     0          
O        O      0.000000000000     0.000000000000     0.272496666667     0          
O        O      0.018595000000     0.068055000000     0.272930000000     0          
O        O      0.472090000000     0.119545000000     0.262643333333     0          
O        O      0.495490000000     0.082420000000     0.204076666667     0          
O        O      0.037805000000     0.127530000000     0.238050000000     0          
O        O      0.099765000000     0.099765000000     0.222070000000     0          
O        O      0.059690000000     0.124855000000     0.166666666667     0          
O        O      0.090790000000     0.168655000000     0.214783333333     0          
O        O      0.159900000000     0.159900000000     0.223090000000     0          
O        O      0.135160000000     0.198880000000     0.166666666667     0          
T        Si     0.150625000000     0.256000000000     0.078013333333     0          
T        Si     0.119610000000     0.321860000000     0.043610000000     0          
T        Si     0.062605000000     0.379185000000     0.043756666667     0          
T        Si     0.221320000000     0.278680000000     0.120863333333     0          
T        Si     0.191510000000     0.251965000000     0.000000000000     0          
O        O      0.181945000000     0.268595000000     0.106263333333     0          
O        O      0.130455000000     0.222090000000     0.095976666667     0          
O        O      0.167580000000     0.245490000000     0.037410000000     0          
O        O      0.122470000000     0.287805000000     0.071383333333     0          
O        O      0.150235000000     0.349765000000     0.055403333333     0          
O        O      0.125145000000     0.309690000000     0.000000000000     0          
O        O      0.081345000000     0.340790000000     0.048116666667     0          
O        O      0.090100000000     0.409900000000     0.056423333333     0          
O        O      0.051120000000     0.385160000000     0.000000000000     0          
T        Si     0.494000000000     0.400625000000     0.244680000000     0          
T        Si     0.428140000000     0.369610000000     0.210276666667     0          
T        Si     0.370815000000     0.312605000000     0.210423333333     0          
T        Si     0.471320000000     0.471320000000     0.287530000000     0          
T        Si     0.498035000000     0.441510000000     0.166666666667     0          
O        O      0.481405000000     0.431945000000     0.272930000000     0          
O        O      0.027910000000     0.380455000000     0.262643333333     0          
O        O      0.004510000000     0.417580000000     0.204076666667     0          
O        O      0.462195000000     0.372470000000     0.238050000000     0          
O        O      0.400235000000     0.400235000000     0.222070000000     0          
O        O      0.440310000000     0.375145000000     0.166666666667     0          
O        O      0.409210000000     0.331345000000     0.214783333333     0          
O        O      0.340100000000     0.340100000000     0.223090000000     0          
O        O      0.364840000000     0.301120000000     0.166666666667     0          
T        Si     0.400625000000     0.494000000000     0.244680000000     0          
T        Si     0.369610000000     0.428140000000     0.210276666667     0          
T        Si     0.312605000000     0.370815000000     0.210423333333     0          
O        O      0.431945000000     0.481405000000     0.272930000000     0          
O        O      0.380455000000     0.027910000000     0.262643333333     0          
O        O      0.417580000000     0.004510000000     0.204076666667     0          
O        O      0.372470000000     0.462195000000     0.238050000000     0          
O        O      0.331345000000     0.409210000000     0.214783333333     0          
T        Si     0.256000000000     0.150625000000     0.078013333333     0          
T        Si     0.321860000000     0.119610000000     0.043610000000     0          
T        Si     0.379185000000     0.062605000000     0.043756666667     0          
O        O      0.268595000000     0.181945000000     0.106263333333     0          
O        O      0.222090000000     0.130455000000     0.095976666667     0          
O        O      0.245490000000     0.167580000000     0.037410000000     0          
O        O      0.287805000000     0.122470000000     0.071383333333     0          
O        O      0.340790000000     0.081345000000     0.048116666667     0          
T        Si     0.099375000000     0.006000000000     0.244680000000     0          
T        Si     0.130390000000     0.071860000000     0.210276666667     0          
T        Si     0.187395000000     0.129185000000     0.210423333333     0          
O        O      0.068055000000     0.018595000000     0.272930000000     0          
O        O      0.119545000000     0.472090000000     0.262643333333     0          
O        O      0.082420000000     0.495490000000     0.204076666667     0          
O        O      0.127530000000     0.037805000000     0.238050000000     0          
O        O      0.168655000000     0.090790000000     0.214783333333     0          
T        Si     0.244000000000     0.349375000000     0.078013333333     0          
T        Si     0.178140000000     0.380390000000     0.043610000000     0          
T        Si     0.120815000000     0.437395000000     0.043756666667     0          
O        O      0.231405000000     0.318055000000     0.106263333333     0          
O        O      0.277910000000     0.369545000000     0.095976666667     0          
O        O      0.254510000000     0.332420000000     0.037410000000     0          
O        O      0.212195000000     0.377530000000     0.071383333333     0          
O        O      0.159210000000     0.418655000000     0.048116666667     0          
T        Si     0.150625000000     0.256000000000     0.255320000000     0          
T        Si     0.119610000000     0.321860000000     0.289723333333     0          
T        Si     0.062605000000     0.379185000000     0.289576666667     0          
O        O      0.181945000000     0.268595000000     0.227070000000     0          
O        O      0.130455000000     0.222090000000     0.237356666667     0          
O        O      0.167580000000     0.245490000000     0.295923333333     0          
O        O      0.122470000000     0.287805000000     0.261950000000     0          
O        O      0.081345000000     0.340790000000     0.285216666667     0          
T        Si     0.494000000000     0.400625000000     0.088653333333     0          
T        Si     0.428140000000     0.369610000000     0.123056666667     0          
T        Si     0.370815000000     0.312605000000     0.122910000000     0          
O        O      0.481405000000     0.431945000000     0.060403333333     0          
O        O      0.027910000000     0.380455000000     0.070690000000     0          
O        O      0.004510000000     0.417580000000     0.129256666667     0          
O        O      0.462195000000     0.372470000000     0.095283333333     0          
O        O      0.409210000000     0.331345000000     0.118550000000     0          
T        Si     0.349375000000     0.244000000000     0.255320000000     0          
T        Si     0.380390000000     0.178140000000     0.289723333333     0          
T        Si     0.437395000000     0.120815000000     0.289576666667     0          
O        O      0.318055000000     0.231405000000     0.227070000000     0          
O        O      0.369545000000     0.277910000000     0.237356666667     0          
O        O      0.332420000000     0.254510000000     0.295923333333     0          
O        O      0.377530000000     0.212195000000     0.261950000000     0          
O        O      0.418655000000     0.159210000000     0.285216666667     0          
T        Si     0.006000000000     0.099375000000     0.088653333333     0          
T        Si     0.071860000000     0.130390000000     0.123056666667     0          
T        Si     0.129185000000     0.187395000000     0.122910000000     0          
O        O      0.018595000000     0.068055000000     0.060403333333     0          
O        O      0.472090000000     0.119545000000     0.070690000000     0          
O        O      0.495490000000     0.082420000000     0.129256666667     0          
O        O      0.037805000000     0.127530000000     0.095283333333     0          
O        O      0.090790000000     0.168655000000     0.118550000000     0          
T        Si     0.099375000000     0.006000000000     0.421986666667     0          
T        Si     0.130390000000     0.071860000000     0.456390000000     0          
T        Si     0.187395000000     0.129185000000     0.456243333333     0          
T        Si     0.028680000000     0.028680000000     0.379136666667     0          
T        Si     0.058490000000     0.001965000000     0.500000000000     0          
O        O      0.000000000000     0.000000000000     0.394170000000     0          
O        O      0.028630000000     0.028630000000     0.333333333333     0          
O        O      0.068055000000     0.018595000000     0.393736666667     0          
O        O      0.119545000000     0.472090000000     0.404023333333     0          
O        O      0.082420000000     0.495490000000     0.462590000000     0          
O        O      0.026565000000     0.473435000000     0.500000000000     0          
O        O      0.041340000000     0.041340000000     0.500000000000     0          
O        O      0.127530000000     0.037805000000     0.428616666667     0          
O        O      0.099765000000     0.099765000000     0.444596666667     0          
O        O      0.124855000000     0.059690000000     0.500000000000     0          
O        O      0.168655000000     0.090790000000     0.451883333333     0          
O        O      0.159900000000     0.159900000000     0.443576666667     0          
O        O      0.198880000000     0.135160000000     0.500000000000     0          
T        Si     0.244000000000     0.349375000000     0.588653333333     0          
T        Si     0.178140000000     0.380390000000     0.623056666667     0          
T        Si     0.120815000000     0.437395000000     0.622910000000     0          
T        Si     0.221320000000     0.278680000000     0.545803333333     0          
T        Si     0.248035000000     0.308490000000     0.333333333333     0          
O        O      0.250000000000     0.250000000000     0.560836666667     0          
O        O      0.221370000000     0.278630000000     0.500000000000     0          
O        O      0.231405000000     0.318055000000     0.560403333333     0          
O        O      0.277910000000     0.369545000000     0.570690000000     0          
O        O      0.254510000000     0.332420000000     0.629256666667     0          
O        O      0.276565000000     0.276565000000     0.333333333333     0          
O        O      0.208660000000     0.291340000000     0.333333333333     0          
O        O      0.212195000000     0.377530000000     0.595283333333     0          
O        O      0.150235000000     0.349765000000     0.611263333333     0          
O        O      0.190310000000     0.374855000000     0.333333333333     0          
O        O      0.159210000000     0.418655000000     0.618550000000     0          
O        O      0.090100000000     0.409900000000     0.610243333333     0          
O        O      0.114840000000     0.448880000000     0.333333333333     0          
T        Si     0.400625000000     0.494000000000     0.421986666667     0          
T        Si     0.369610000000     0.428140000000     0.456390000000     0          
T        Si     0.312605000000     0.370815000000     0.456243333333     0          
T        Si     0.471320000000     0.471320000000     0.379136666667     0          
T        Si     0.441510000000     0.498035000000     0.500000000000     0          
O        O      0.471370000000     0.471370000000     0.333333333333     0          
O        O      0.431945000000     0.481405000000     0.393736666667     0          
O        O      0.380455000000     0.027910000000     0.404023333333     0          
O        O      0.417580000000     0.004510000000     0.462590000000     0          
O        O      0.473435000000     0.026565000000     0.500000000000     0          
O        O      0.458660000000     0.458660000000     0.500000000000     0          
O        O      0.372470000000     0.462195000000     0.428616666667     0          
O        O      0.400235000000     0.400235000000     0.444596666667     0          
O        O      0.375145000000     0.440310000000     0.500000000000     0          
O        O      0.331345000000     0.409210000000     0.451883333333     0          
O        O      0.340100000000     0.340100000000     0.443576666667     0          
O        O      0.301120000000     0.364840000000     0.500000000000     0          
T        Si     0.256000000000     0.150625000000     0.588653333333     0          
T        Si     0.321860000000     0.119610000000     0.623056666667     0          
T        Si     0.379185000000     0.062605000000     0.622910000000     0          
T        Si     0.278680000000     0.221320000000     0.545803333333     0          
T        Si     0.251965000000     0.191510000000     0.333333333333     0          
O        O      0.278630000000     0.221370000000     0.500000000000     0          
O        O      0.268595000000     0.181945000000     0.560403333333     0          
O        O      0.222090000000     0.130455000000     0.570690000000     0          
O        O      0.245490000000     0.167580000000     0.629256666667     0          
O        O      0.223435000000     0.223435000000     0.333333333333     0          
O        O      0.291340000000     0.208660000000     0.333333333333     0          
O        O      0.287805000000     0.122470000000     0.595283333333     0          
O        O      0.349765000000     0.150235000000     0.611263333333     0          
O        O      0.309690000000     0.125145000000     0.333333333333     0          
O        O      0.340790000000     0.081345000000     0.618550000000     0          
O        O      0.409900000000     0.090100000000     0.610243333333     0          
O        O      0.385160000000     0.051120000000     0.333333333333     0          
T        Si     0.349375000000     0.244000000000     0.411346666667     0          
T        Si     0.380390000000     0.178140000000     0.376943333333     0          
T        Si     0.437395000000     0.120815000000     0.377090000000     0          
T        Si     0.278680000000     0.221320000000     0.454196666667     0          
T        Si     0.308490000000     0.248035000000     0.333333333333     0          
O        O      0.250000000000     0.250000000000     0.439163333333     0          
O        O      0.318055000000     0.231405000000     0.439596666667     0          
O        O      0.369545000000     0.277910000000     0.429310000000     0          
O        O      0.332420000000     0.254510000000     0.370743333333     0          
O        O      0.377530000000     0.212195000000     0.404716666667     0          
O        O      0.349765000000     0.150235000000     0.388736666667     0          
O        O      0.374855000000     0.190310000000     0.333333333333     0          
O        O      0.418655000000     0.159210000000     0.381450000000     0          
O        O      0.409900000000     0.090100000000     0.389756666667     0          
O        O      0.448880000000     0.114840000000     0.333333333333     0          
T        Si     0.006000000000     0.099375000000     0.578013333333     0          
T        Si     0.071860000000     0.130390000000     0.543610000000     0          
T        Si     0.129185000000     0.187395000000     0.543756666667     0          
T        Si     0.028680000000     0.028680000000     0.620863333333     0          
T        Si     0.001965000000     0.058490000000     0.500000000000     0          
O        O      0.000000000000     0.000000000000     0.605830000000     0          
O        O      0.018595000000     0.068055000000     0.606263333333     0          
O        O      0.472090000000     0.119545000000     0.595976666667     0          
O        O      0.495490000000     0.082420000000     0.537410000000     0          
O        O      0.037805000000     0.127530000000     0.571383333333     0          
O        O      0.099765000000     0.099765000000     0.555403333333     0          
O        O      0.059690000000     0.124855000000     0.500000000000     0          
O        O      0.090790000000     0.168655000000     0.548116666667     0          
O        O      0.159900000000     0.159900000000     0.556423333333     0          
O        O      0.135160000000     0.198880000000     0.500000000000     0          
T        Si     0.150625000000     0.256000000000     0.411346666667     0          
T        Si     0.119610000000     0.321860000000     0.376943333333     0          
T        Si     0.062605000000     0.379185000000     0.377090000000     0          
T        Si     0.221320000000     0.278680000000     0.454196666667     0          
T        Si     0.191510000000     0.251965000000     0.333333333333     0          
O        O      0.181945000000     0.268595000000     0.439596666667     0          
O        O      0.130455000000     0.222090000000     0.429310000000     0          
O        O      0.167580000000     0.245490000000     0.370743333333     0          
O        O      0.122470000000     0.287805000000     0.404716666667     0          
O        O      0.150235000000     0.349765000000     0.388736666667     0          
O        O      0.125145000000     0.309690000000     0.333333333333     0          
O        O      0.081345000000     0.340790000000     0.381450000000     0          
O        O      0.090100000000     0.409900000000     0.389756666667     0          
O        O      0.051120000000     0.385160000000     0.333333333333     0          
T        Si     0.494000000000     0.400625000000     0.578013333333     0          
T        Si     0.428140000000     0.369610000000     0.543610000000     0          
T        Si     0.370815000000     0.312605000000     0.543756666667     0          
T        Si     0.471320000000     0.471320000000     0.620863333333     0          
T        Si     0.498035000000     0.441510000000     0.500000000000     0          
O        O      0.481405000000     0.431945000000     0.606263333333     0          
O        O      0.027910000000     0.380455000000     0.595976666667     0          
O        O      0.004510000000     0.417580000000     0.537410000000     0          
O        O      0.462195000000     0.372470000000     0.571383333333     0          
O        O      0.400235000000     0.400235000000     0.555403333333     0          
O        O      0.440310000000     0.375145000000     0.500000000000     0          
O        O      0.409210000000     0.331345000000     0.548116666667     0          
O        O      0.340100000000     0.340100000000     0.556423333333     0          
O        O      0.364840000000     0.301120000000     0.500000000000     0          
T        Si     0.400625000000     0.494000000000     0.578013333333     0          
T        Si     0.369610000000     0.428140000000     0.543610000000     0          
T        Si     0.312605000000     0.370815000000     0.543756666667     0          
O        O      0.431945000000     0.481405000000     0.606263333333     0          
O        O      0.380455000000     0.027910000000     0.595976666667     0          
O        O      0.417580000000     0.004510000000     0.537410000000     0          
O        O      0.372470000000     0.462195000000     0.571383333333     0          
O        O      0.331345000000     0.409210000000     0.548116666667     0          
T        Si     0.256000000000     0.150625000000     0.411346666667     0          
T        Si     0.321860000000     0.119610000000     0.376943333333     0          
T        Si     0.379185000000     0.062605000000     0.377090000000     0          
O        O      0.268595000000     0.181945000000     0.439596666667     0          
O        O      0.222090000000     0.130455000000     0.429310000000     0          
O        O      0.245490000000     0.167580000000     0.370743333333     0          
O        O      0.287805000000     0.122470000000     0.404716666667     0          
O        O      0.340790000000     0.081345000000     0.381450000000     0          
T        Si     0.099375000000     0.006000000000     0.578013333333     0          
T        Si     0.130390000000     0.071860000000     0.543610000000     0          
T        Si     0.187395000000     0.129185000000     0.543756666667     0          
O        O      0.068055000000     0.018595000000     0.606263333333     0          
O        O      0.119545000000     0.472090000000     0.595976666667     0          
O        O      0.082420000000     0.495490000000     0.537410000000     0          
O        O      0.127530000000     0.037805000000     0.571383333333     0          
O        O      0.168655000000     0.090790000000     0.548116666667     0          
T        Si     0.244000000000     0.349375000000     0.411346666667     0          
T        Si     0.178140000000     0.380390000000     0.376943333333     0          
T        Si     0.120815000000     0.437395000000     0.377090000000     0          
O        O      0.231405000000     0.318055000000     0.439596666667     0          
O        O      0.277910000000     0.369545000000     0.429310000000     0          
O        O      0.254510000000     0.332420000000     0.370743333333     0          
O        O      0.212195000000     0.377530000000     0.404716666667     0          
O        O      0.159210000000     0.418655000000     0.381450000000     0          
T        Si     0.150625000000     0.256000000000     0.588653333333     0          
T        Si     0.119610000000     0.321860000000     0.623056666667     0          
T        Si     0.062605000000     0.379185000000     0.622910000000     0          
O        O      0.181945000000     0.268595000000     0.560403333333     0          
O        O      0.130455000000     0.222090000000     0.570690000000     0          
O        O      0.167580000000     0.245490000000     0.629256666667     0          
O        O      0.122470000000     0.287805000000     0.595283333333     0          
O        O      0.081345000000     0.340790000000     0.618550000000     0          
T        Si     0.494000000000     0.400625000000     0.421986666667     0          
T        Si     0.428140000000     0.369610000000     0.456390000000     0          
T        Si     0.370815000000     0.312605000000     0.456243333333     0          
O        O      0.481405000000     0.431945000000     0.393736666667     0          
O        O      0.027910000000     0.380455000000     0.404023333333     0          
O        O      0.004510000000     0.417580000000     0.462590000000     0          
O        O      0.462195000000     0.372470000000     0.428616666667     0          
O        O      0.409210000000     0.331345000000     0.451883333333     0          
T        Si     0.349375000000     0.244000000000     0.588653333333     0          
T        Si     0.380390000000     0.178140000000     0.623056666667     0          
T        Si     0.437395000000     0.120815000000     0.622910000000     0          
O        O      0.318055000000     0.231405000000     0.560403333333     0          
O        O      0.369545000000     0.277910000000     0.570690000000     0          
O        O      0.332420000000     0.254510000000     0.629256666667     0          
O        O      0.377530000000     0.212195000000     0.595283333333     0          
O        O      0.418655000000     0.159210000000     0.618550000000     0          
T        Si     0.006000000000     0.099375000000     0.421986666667     0          
T        Si     0.071860000000     0.130390000000     0.456390000000     0          
T        Si     0.129185000000     0.187395000000     0.456243333333     0          
O        O      0.018595000000     0.068055000000     0.393736666667     0          
O        O      0.472090000000     0.119545000000     0.404023333333     0          
O        O      0.495490000000     0.082420000000     0.462590000000     0          
O        O      0.037805000000     0.127530000000     0.428616666667     0          
O        O      0.090790000000     0.168655000000     0.451883333333     0          
T        Si     0.099375000000     0.006000000000     0.755320000000     0          
T        Si     0.130390000000     0.071860000000     0.789723333333     0          
T        Si     0.187395000000     0.129185000000     0.789576666667     0          
T        Si     0.028680000000     0.028680000000     0.712470000000     0          
T        Si     0.058490000000     0.001965000000     0.833333333333     0          
O        O      0.000000000000     0.000000000000     0.727503333333     0          
O        O      0.028630000000     0.028630000000     0.666666666667     0          
O        O      0.068055000000     0.018595000000     0.727070000000     0          
O        O      0.119545000000     0.472090000000     0.737356666667     0          
O        O      0.082420000000     0.495490000000     0.795923333333     0          
O        O      0.026565000000     0.473435000000     0.833333333333     0          
O        O      0.041340000000     0.041340000000     0.833333333333     0          
O        O      0.127530000000     0.037805000000     0.761950000000     0          
O        O      0.099765000000     0.099765000000     0.777930000000     0          
O        O      0.124855000000     0.059690000000     0.833333333333     0          
O        O      0.168655000000     0.090790000000     0.785216666667     0          
O        O      0.159900000000     0.159900000000     0.776910000000     0          
O        O      0.198880000000     0.135160000000     0.833333333333     0          
T        Si     0.244000000000     0.349375000000     0.921986666667     0          
T        Si     0.178140000000     0.380390000000     0.956390000000     0          
T        Si     0.120815000000     0.437395000000     0.956243333333     0          
T        Si     0.221320000000     0.278680000000     0.879136666667     0          
T        Si     0.248035000000     0.308490000000     0.666666666667     0          
O        O      0.250000000000     0.250000000000     0.894170000000     0          
O        O      0.221370000000     0.278630000000     0.833333333333     0          
O        O      0.231405000000     0.318055000000     0.893736666667     0          
O        O      0.277910000000     0.369545000000     0.904023333333     0          
O        O      0.254510000000     0.332420000000     0.962590000000     0          
O        O      0.276565000000     0.276565000000     0.666666666667     0          
O        O      0.208660000000     0.291340000000     0.666666666667     0          
O        O      0.212195000000     0.377530000000     0.928616666667     0          
O        O      0.150235000000     0.349765000000     0.944596666667     0          
O        O      0.190310000000     0.374855000000     0.666666666667     0          
O        O      0.159210000000     0.418655000000     0.951883333333     0          
O        O      0.090100000000     0.409900000000     0.943576666667     0          
O        O      0.114840000000     0.448880000000     0.666666666667     0          
T        Si     0.400625000000     0.494000000000     0.755320000000     0          
T        Si     0.369610000000     0.428140000000     0.789723333333     0          
T        Si     0.312605000000     0.370815000000     0.789576666667     0          
T        Si     0.471320000000     0.471320000000     0.712470000000     0          
T        Si     0.441510000000     0.498035000000     0.833333333333     0          
O        O      0.471370000000     0.471370000000     0.666666666667     0          
O        O      0.431945000000     0.481405000000     0.727070000000     0          
O        O      0.380455000000     0.027910000000     0.737356666667     0          
O        O      0.417580000000     0.004510000000     0.795923333333     0          
O        O      0.473435000000     0.026565000000     0.833333333333     0          
O        O      0.458660000000     0.458660000000     0.833333333333     0          
O        O      0.372470000000     0.462195000000     0.761950000000     0          
O        O      0.400235000000     0.400235000000     0.777930000000     0          
O        O      0.375145000000     0.440310000000     0.833333333333     0          
O        O      0.331345000000     0.409210000000     0.785216666667     0          
O        O      0.340100000000     0.340100000000     0.776910000000     0          
O        O      0.301120000000     0.364840000000     0.833333333333     0          
T        Si     0.256000000000     0.150625000000     0.921986666667     0          
T        Si     0.321860000000     0.119610000000     0.956390000000     0          
T        Si     0.379185000000     0.062605000000     0.956243333333     0          
T        Si     0.278680000000     0.221320000000     0.879136666667     0          
T        Si     0.251965000000     0.191510000000     0.666666666667     0          
O        O      0.278630000000     0.221370000000     0.833333333333     0          
O        O      0.268595000000     0.181945000000     0.893736666667     0          
O        O      0.222090000000     0.130455000000     0.904023333333     0          
O        O      0.245490000000     0.167580000000     0.962590000000     0          
O        O      0.223435000000     0.223435000000     0.666666666667     0          
O        O      0.291340000000     0.208660000000     0.666666666667     0          
O        O      0.287805000000     0.122470000000     0.928616666667     0          
O        O      0.349765000000     0.150235000000     0.944596666667     0          
O        O      0.309690000000     0.125145000000     0.666666666667     0          
O        O      0.340790000000     0.081345000000     0.951883333333     0          
O        O      0.409900000000     0.090100000000     0.943576666667     0          
O        O      0.385160000000     0.051120000000     0.666666666667     0          
T        Si     0.349375000000     0.244000000000     0.744680000000     0          
T        Si     0.380390000000     0.178140000000     0.710276666667     0          
T        Si     0.437395000000     0.120815000000     0.710423333333     0          
T        Si     0.278680000000     0.221320000000     0.787530000000     0          
T        Si     0.308490000000     0.248035000000     0.666666666667     0          
O        O      0.250000000000     0.250000000000     0.772496666667     0          
O        O      0.318055000000     0.231405000000     0.772930000000     0          
O        O      0.369545000000     0.277910000000     0.762643333333     0          
O        O      0.332420000000     0.254510000000     0.704076666667     0          
O        O      0.377530000000     0.212195000000     0.738050000000     0          
O        O      0.349765000000     0.150235000000     0.722070000000     0          
O        O      0.374855000000     0.190310000000     0.666666666667     0          
O        O      0.418655000000     0.159210000000     0.714783333333     0          
O        O      0.409900000000     0.090100000000     0.723090000000     0          
O        O      0.448880000000     0.114840000000     0.666666666667     0          
T        Si     0.006000000000     0.099375000000     0.911346666667     0          
T        Si     0.071860000000     0.130390000000     0.876943333333     0          
T        Si     0.129185000000     0.187395000000     0.877090000000     0          
T        Si     0.028680000000     0.028680000000     0.954196666667     0          
T        Si     0.001965000000     0.058490000000     0.833333333333     0          
O        O      0.000000000000     0.000000000000     0.939163333333     0          
O        O      0.018595000000     0.068055000000     0.939596666667     0          
O        O      0.472090000000     0.119545000000     0.929310000000     0          
O        O      0.495490000000     0.082420000000     0.870743333333     0          
O        O      0.037805000000     0.127530000000     0.904716666667     0          
O        O      0.099765000000     0.099765000000     0.888736666667     0          
O        O      0.059690000000     0.124855000000     0.833333333333     0          
O        O      0.090790000000     0.168655000000     0.881450000000     0          
O        O      0.159900000000     0.159900000000     0.889756666667     0          
O        O      0.135160000000     0.198880000000     0.833333333333     0          
T        Si     0.150625000000     0.256000000000     0.744680000000     0          
T        Si     0.119610000000     0.321860000000     0.710276666667     0          
T        Si     0.062605000000     0.379185000000     0.710423333333     0          
T        Si     0.221320000000     0.278680000000     0.787530000000     0          
T        Si     0.191510000000     0.251965000000     0.666666666667     0          
O        O      0.181945000000     0.268595000000     0.772930000000     0          
O        O      0.130455000000     0.222090000000     0.762643333333     0          
O        O      0.167580000000     0.245490000000     0.704076666667     0          
O        O      0.122470000000     0.287805000000     0.738050000000     0          
O        O      0.150235000000     0.349765000000     0.722070000000     0          
O        O      0.125145000000     0.309690000000     0.666666666667     0          
O        O      0.081345000000     0.340790000000     0.714783333333     0          
O        O      0.090100000000     0.409900000000     0.723090000000     0          
O        O      0.051120000000     0.385160000000     0.666666666667     0          
T        Si     0.494000000000     0.400625000000     0.911346666667     0          
T        Si     0.428140000000     0.369610000000     0.876943333333     0          
T        Si     0.370815000000     0.312605000000     0.877090000000     0          
T        Si     0.471320000000     0.471320000000     0.954196666667     0          
T        Si     0.498035000000     0.441510000000     0.833333333333     0          
O        O      0.481405000000     0.431945000000     0.939596666667     0          
O        O      0.027910000000     0.380455000000     0.929310000000     0          
O        O      0.004510000000     0.417580000000     0.870743333333     0          
O        O      0.462195000000     0.372470000000     0.904716666667     0          
O        O      0.400235000000     0.400235000000     0.888736666667     0          
O        O      0.440310000000     0.375145000000     0.833333333333     0          
O        O      0.409210000000     0.331345000000     0.881450000000     0          
O        O      0.340100000000     0.340100000000     0.889756666667     0          
O        O      0.364840000000     0.301120000000     0.833333333333     0          
T        Si     0.400625000000     0.494000000000     0.911346666667     0          
T        Si     0.369610000000     0.428140000000     0.876943333333     0          
T        Si     0.312605000000     0.370815000000     0.877090000000     0          
O        O      0.431945000000     0.481405000000     0.939596666667     0          
O        O      0.380455000000     0.027910000000     0.929310000000     0          
O        O      0.417580000000     0.004510000000     0.870743333333     0          
O        O      0.372470000000     0.462195000000     0.904716666667     0          
O        O      0.331345000000     0.409210000000     0.881450000000     0          
T        Si     0.256000000000     0.150625000000     0.744680000000     0          
T        Si     0.321860000000     0.119610000000     0.710276666667     0          
T        Si     0.379185000000     0.062605000000     0.710423333333     0          
O        O      0.268595000000     0.181945000000     0.772930000000     0          
O        O      0.222090000000     0.130455000000     0.762643333333     0          
O        O      0.245490000000     0.167580000000     0.704076666667     0          
O        O      0.287805000000     0.122470000000     0.738050000000     0          
O        O      0.340790000000     0.081345000000     0.714783333333     0          
T        Si     0.099375000000     0.006000000000     0.911346666667     0          
T        Si     0.130390000000     0.071860000000     0.876943333333     0          
T        Si     0.187395000000     0.129185000000     0.877090000000     0          
O        O      0.068055000000     0.018595000000     0.939596666667     0          
O        O      0.119545000000     0.472090000000     0.929310000000     0          
O        O      0.082420000000     0.495490000000     0.870743333333     0          
O        O      0.127530000000     0.037805000000     0.904716666667     0          
O        O      0.168655000000     0.090790000000     0.881450000000     0          
T        Si     0.244000000000     0.349375000000     0.744680000000     0          
T        Si     0.178140000000     0.380390000000     0.710276666667     0          
T        Si     0.120815000000     0.437395000000     0.710423333333     0          
O        O      0.231405000000     0.318055000000     0.772930000000     0          
O        O      0.277910000000     0.369545000000     0.762643333333     0          
O        O      0.254510000000     0.332420000000     0.704076666667     0          
O        O      0.212195000000     0.377530000000     0.738050000000     0          
O        O      0.159210000000     0.418655000000     0.714783333333     0          
T        Si     0.150625000000     0.256000000000     0.921986666667     0          
T        Si     0.119610000000     0.321860000000     0.956390000000     0          
T        Si     0.062605000000     0.379185000000     0.956243333333     0          
O        O      0.181945000000     0.268595000000     0.893736666667     0          
O        O      0.130455000000     0.222090000000     0.904023333333     0          
O        O      0.167580000000     0.245490000000     0.962590000000     0          
O        O      0.122470000000     0.287805000000     0.928616666667     0          
O        O      0.081345000000     0.340790000000     0.951883333333     0          
T        Si     0.494000000000     0.400625000000     0.755320000000     0          
T        Si     0.428140000000     0.369610000000     0.789723333333     0          
T        Si     0.370815000000     0.312605000000     0.789576666667     0          
O        O      0.481405000000     0.431945000000     0.727070000000     0          
O        O      0.027910000000     0.380455000000     0.737356666667     0          
O        O      0.004510000000     0.417580000000     0.795923333333     0          
O        O      0.462195000000     0.372470000000     0.761950000000     0          
O        O      0.409210000000     0.331345000000     0.785216666667     0          
T        Si     0.349375000000     0.244000000000     0.921986666667     0          
T        Si     0.380390000000     0.178140000000     0.956390000000     0          
T        Si     0.437395000000     0.120815000000     0.956243333333     0          
O        O      0.318055000000     0.231405000000     0.893736666667     0          
O        O      0.369545000000     0.277910000000     0.904023333333     0          
O        O      0.332420000000     0.254510000000     0.962590000000     0          
O        O      0.377530000000     0.212195000000     0.928616666667     0          
O        O      0.418655000000     0.159210000000     0.951883333333     0          
T        Si     0.006000000000     0.099375000000     0.755320000000     0          
T        Si     0.071860000000     0.130390000000     0.789723333333     0          
T        Si     0.129185000000     0.187395000000     0.789576666667     0          
O        O      0.018595000000     0.068055000000     0.727070000000     0          
O        O      0.472090000000     0.119545000000     0.737356666667     0          
O        O      0.495490000000     0.082420000000     0.795923333333     0          
O        O      0.037805000000     0.127530000000     0.761950000000     0          
O        O      0.090790000000     0.168655000000     0.785216666667     0          
T        Si     0.099375000000     0.506000000000     0.088653333333     0          
T        Si     0.130390000000     0.571860000000     0.123056666667     0          
T        Si     0.187395000000     0.629185000000     0.122910000000     0          
T        Si     0.028680000000     0.528680000000     0.045803333333     0          
T        Si     0.058490000000     0.501965000000     0.166666666667     0          
O        O      0.000000000000     0.500000000000     0.060836666667     0          
O        O      0.028630000000     0.528630000000     0.000000000000     0          
O        O      0.068055000000     0.518595000000     0.060403333333     0          
O        O      0.119545000000     0.972090000000     0.070690000000     0          
O        O      0.082420000000     0.995490000000     0.129256666667     0          
O        O      0.026565000000     0.973435000000     0.166666666667     0          
O        O      0.041340000000     0.541340000000     0.166666666667     0          
O        O      0.127530000000     0.537805000000     0.095283333333     0          
O        O      0.099765000000     0.599765000000     0.111263333333     0          
O        O      0.124855000000     0.559690000000     0.166666666667     0          
O        O      0.168655000000     0.590790000000     0.118550000000     0          
O        O      0.159900000000     0.659900000000     0.110243333333     0          
O        O      0.198880000000     0.635160000000     0.166666666667     0          
T        Si     0.244000000000     0.849375000000     0.255320000000     0          
T        Si     0.178140000000     0.880390000000     0.289723333333     0          
T        Si     0.120815000000     0.937395000000     0.289576666667     0          
T        Si     0.221320000000     0.778680000000     0.212470000000     0          
T        Si     0.248035000000     0.808490000000     0.000000000000     0          
O        O      0.250000000000     0.750000000000     0.227503333333     0          
O        O      0.221370000000     0.778630000000     0.166666666667     0          
O        O      0.231405000000     0.818055000000     0.227070000000     0          
O        O      0.277910000000     0.869545000000     0.237356666667     0          
O        O      0.254510000000     0.832420000000     0.295923333333     0          
O        O      0.276565000000     0.776565000000     0.000000000000     0          
O        O      0.208660000000     0.791340000000     0.000000000000     0          
O        O      0.212195000000     0.877530000000     0.261950000000     0          
O        O      0.150235000000     0.849765000000     0.277930000000     0          
O        O      0.190310000000     0.874855000000     0.000000000000     0          
O        O      0.159210000000     0.918655000000     0.285216666667     0          
O        O      0.090100000000     0.909900000000     0.276910000000     0          
O        O      0.114840000000     0.948880000000     0.000000000000     0          
T        Si     0.400625000000     0.994000000000     0.088653333333     0          
T        Si     0.369610000000     0.928140000000     0.123056666667     0          
T        Si     0.312605000000     0.870815000000     0.122910000000     0          
T        Si     0.471320000000     0.971320000000     0.045803333333     0          
T        Si     0.441510000000     0.998035000000     0.166666666667     0          
O        O      0.471370000000     0.971370000000     0.000000000000     0          
O        O      0.431945000000     0.981405000000     0.060403333333     0          
O        O      0.380455000000     0.527910000000     0.070690000000     0          
O        O      0.417580000000     0.504510000000     0.129256666667     0          
O        O      0.473435000000     0.526565000000     0.166666666667     0          
O        O      0.458660000000     0.958660000000     0.166666666667     0          
O        O      0.372470000000     0.962195000000     0.095283333333     0          
O        O      0.400235000000     0.900235000000     0.111263333333     0          
O        O      0.375145000000     0.940310000000     0.166666666667     0          
O        O      0.331345000000     0.909210000000     0.118550000000     0          
O        O      0.340100000000     0.840100000000     0.110243333333     0          
O        O      0.301120000000     0.864840000000     0.166666666667     0          
T        Si     0.256000000000     0.650625000000     0.255320000000     0          
T        Si     0.321860000000     0.619610000000     0.289723333333     0          
T        Si     0.379185000000     0.562605000000     0.289576666667     0          
T        Si     0.278680000000     0.721320000000     0.212470000000     0          
T        Si     0.251965000000     0.691510000000     0.000000000000     0          
O        O      0.278630000000     0.721370000000     0.166666666667     0          
O        O      0.268595000000     0.681945000000     0.227070000000     0          
O        O      0.222090000000     0.630455000000     0.237356666667     0          
O        O      0.245490000000     0.667580000000     0.295923333333     0          
O        O      0.223435000000     0.723435000000     0.000000000000     0          
O        O      0.291340000000     0.708660000000     0.000000000000     0          
O        O      0.287805000000     0.622470000000     0.261950000000     0          
O        O      0.349765000000     0.650235000000     0.277930000000     0          
O        O      0.309690000000     0.625145000000     0.000000000000     0          
O        O      0.340790000000     0.581345000000     0.285216666667     0          
O        O      0.409900000000     0.590100000000     0.276910000000     0          
O        O      0.385160000000     0.551120000000     0.000000000000     0          
T        Si     0.349375000000     0.744000000000     0.078013333333     0          
T        Si     0.380390000000     0.678140000000     0.043610000000     0          
T        Si     0.437395000000     0.620815000000     0.043756666667     0          
T        Si     0.278680000000     0.721320000000     0.120863333333     0          
T        Si     0.308490000000     0.748035000000     0.000000000000     0          
O        O      0.250000000000     0.750000000000     0.105830000000     0          
O        O      0.318055000000     0.731405000000     0.106263333333     0          
O        O      0.369545000000     0.777910000000     0.095976666667     0          
O        O      0.332420000000     0.754510000000     0.037410000000     0          
O        O      0.377530000000     0.712195000000     0.071383333333     0          
O        O      0.349765000000     0.650235000000     0.055403333333     0          
O        O      0.374855000000     0.690310000000     0.000000000000     0          
O        O      0.418655000000     0.659210000000     0.048116666667     0          
O        O      0.409900000000     0.590100000000     0.056423333333     0          
O        O      0.448880000000     0.614840000000     0.000000000000     0          
T        Si     0.006000000000     0.599375000000     0.244680000000     0          
T        Si     0.071860000000     0.630390000000     0.210276666667     0          
T        Si     0.129185000000     0.687395000000     0.210423333333     0          
T        Si     0.028680000000     0.528680000000     0.287530000000     0          
T        Si     0.001965000000     0.558490000000     0.166666666667     0          
O        O      0.000000000000     0.500000000000     0.272496666667     0          
O        O      0.018595000000     0.568055000000     0.272930000000     0          
O        O      0.472090000000     0.619545000000     0.262643333333     0          
O        O      0.495490000000     0.582420000000     0.204076666667     0          
O        O      0.037805000000     0.627530000000     0.238050000000     0          
O        O      0.099765000000     0.599765000000     0.222070000000     0          
O        O      0.059690000000     0.624855000000     0.166666666667     0          
O        O      0.090790000000     0.668655000000     0.214783333333     0          
O        O      0.159900000000     0.659900000000     0.223090000000     0          
O        O      0.135160000000     0.698880000000     0.166666666667     0          
T        Si     0.150625000000     0.756000000000     0.078013333333     0          
T        Si     0.119610000000     0.821860000000     0.043610000000     0          
T        Si     0.062605000000     0.879185000000     0.043756666667     0          
T        Si     0.221320000000     0.778680000000     0.120863333333     0          
T        Si     0.191510000000     0.751965000000     0.000000000000     0          
O        O      0.181945000000     0.768595000000     0.106263333333     0          
O        O      0.130455000000     0.722090000000     0.095976666667     0          
O        O      0.167580000000     0.745490000000     0.037410000000     0          
O        O      0.122470000000     0.787805000000     0.071383333333     0          
O        O      0.150235000000     0.849765000000     0.055403333333     0          
O        O      0.125145000000     0.809690000000     0.000000000000     0          
O        O      0.081345000000     0.840790000000     0.048116666667     0          
O        O      0.090100000000     0.909900000000     0.056423333333     0          
O        O      0.051120000000     0.885160000000     0.000000000000     0          
T        Si     0.494000000000     0.900625000000     0.244680000000     0          
T        Si     0.428140000000     0.869610000000     0.210276666667     0          
T        Si     0.370815000000     0.812605000000     0.210423333333     0          
T        Si     0.471320000000     0.971320000000     0.287530000000     0          
T        Si     0.498035000000     0.941510000000     0.166666666667     0          
O        O      0.481405000000     0.931945000000     0.272930000000     0          
O        O      0.027910000000     0.880455000000     0.262643333333     0          
O        O      0.004510000000     0.917580000000     0.204076666667     0          
O        O      0.462195000000     0.872470000000     0.238050000000     0          
O        O      0.400235000000     0.900235000000     0.222070000000     0          
O        O      0.440310000000     0.875145000000     0.166666666667     0          
O        O      0.409210000000     0.831345000000     0.214783333333     0          
O        O      0.340100000000     0.840100000000     0.223090000000     0          
O        O      0.364840000000     0.801120000000     0.166666666667     0          
T        Si     0.400625000000     0.994000000000     0.244680000000     0          
T        Si     0.369610000000     0.928140000000     0.210276666667     0          
T        Si     0.312605000000     0.870815000000     0.210423333333     0          
O        O      0.431945000000     0.981405000000     0.272930000000     0          
O        O      0.380455000000     0.527910000000     0.262643333333     0          
O        O      0.417580000000     0.504510000000     0.204076666667     0          
O        O      0.372470000000     0.962195000000     0.238050000000     0          
O        O      0.331345000000     0.909210000000     0.214783333333     0          
T        Si     0.256000000000     0.650625000000     0.078013333333     0          
T        Si     0.321860000000     0.619610000000     0.043610000000     0          
T        Si     0.379185000000     0.562605000000     0.043756666667     0          
O        O      0.268595000000     0.681945000000     0.106263333333     0          
O        O      0.222090000000     0.630455000000     0.095976666667     0          
O        O      0.245490000000     0.667580000000     0.037410000000     0          
O        O      0.287805000000     0.622470000000     0.071383333333     0          
O        O      0.340790000000     0.581345000000     0.048116666667     0          
T        Si     0.099375000000     0.506000000000     0.244680000000     0          
T        Si     0.130390000000     0.571860000000     0.210276666667     0          
T        Si     0.187395000000     0.629185000000     0.210423333333     0          
O        O      0.068055000000     0.518595000000     0.272930000000     0          
O        O      0.119545000000     0.972090000000     0.262643333333     0          
O        O      0.082420000000     0.995490000000     0.204076666667     0          
O        O      0.127530000000     0.537805000000     0.238050000000     0          
O        O      0.168655000000     0.590790000000     0.214783333333     0          
T        Si     0.244000000000     0.849375000000     0.078013333333     0          
T        Si     0.178140000000     0.880390000000     0.043610000000     0          
T        Si     0.120815000000     0.937395000000     0.043756666667     0          
O        O      0.231405000000     0.818055000000     0.106263333333     0          
O        O      0.277910000000     0.869545000000     0.095976666667     0          
O        O      0.254510000000     0.832420000000     0.037410000000     0          
O        O      0.212195000000     0.877530000000     0.071383333333     0          
O        O      0.159210000000     0.918655000000     0.048116666667     0          
T        Si     0.150625000000     0.756000000000     0.255320000000     0          
T        Si     0.119610000000     0.821860000000     0.289723333333     0          
T        Si     0.062605000000     0.879185000000     0.289576666667     0          
O        O      0.181945000000     0.768595000000     0.227070000000     0          
O        O      0.130455000000     0.722090000000     0.237356666667     0          
O        O      0.167580000000     0.745490000000     0.295923333333     0          
O        O      0.122470000000     0.787805000000     0.261950000000     0          
O        O      0.081345000000     0.840790000000     0.285216666667     0          
T        Si     0.494000000000     0.900625000000     0.088653333333     0          
T        Si     0.428140000000     0.869610000000     0.123056666667     0          
T        Si     0.370815000000     0.812605000000     0.122910000000     0          
O        O      0.481405000000     0.931945000000     0.060403333333     0          
O        O      0.027910000000     0.880455000000     0.070690000000     0          
O        O      0.004510000000     0.917580000000     0.129256666667     0          
O        O      0.462195000000     0.872470000000     0.095283333333     0          
O        O      0.409210000000     0.831345000000     0.118550000000     0          
T        Si     0.349375000000     0.744000000000     0.255320000000     0          
T        Si     0.380390000000     0.678140000000     0.289723333333     0          
T        Si     0.437395000000     0.620815000000     0.289576666667     0          
O        O      0.318055000000     0.731405000000     0.227070000000     0          
O        O      0.369545000000     0.777910000000     0.237356666667     0          
O        O      0.332420000000     0.754510000000     0.295923333333     0          
O        O      0.377530000000     0.712195000000     0.261950000000     0          
O        O      0.418655000000     0.659210000000     0.285216666667     0          
T        Si     0.006000000000     0.599375000000     0.088653333333     0          
T        Si     0.071860000000     0.630390000000     0.123056666667     0          
T        Si     0.129185000000     0.687395000000     0.122910000000     0          
O        O      0.018595000000     0.568055000000     0.060403333333     0          
O        O      0.472090000000     0.619545000000     0.070690000000     0          
O        O      0.495490000000     0.582420000000     0.129256666667     0          
O        O      0.037805000000     0.627530000000     0.095283333333     0          
O        O      0.090790000000     0.668655000000     0.118550000000     0          
T        Si     0.099375000000     0.506000000000     0.421986666667     0          
T        Si     0.130390000000     0.571860000000     0.456390000000     0          
T        Si     0.187395000000     0.629185000000     0.456243333333     0          
T        Si     0.028680000000     0.528680000000     0.379136666667     0          
T        Si     0.058490000000     0.501965000000     0.500000000000     0          
O        O      0.000000000000     0.500000000000     0.394170000000     0          
O        O      0.028630000000     0.528630000000     0.333333333333     0          
O        O      0.068055000000     0.518595000000     0.393736666667     0          
O        O      0.119545000000     0.972090000000     0.404023333333     0          
O        O      0.082420000000     0.995490000000     0.462590000000     0          
O        O      0.026565000000     0.973435000000     0.500000000000     0          
O        O      0.041340000000     0.541340000000     0.500000000000     0          
O        O      0.127530000000     0.537805000000     0.428616666667     0          
O        O      0.099765000000     0.599765000000     0.444596666667     0          
O        O      0.124855000000     0.559690000000     0.500000000000     0          
O        O      0.168655000000     0.590790000000     0.451883333333     0          
O        O      0.159900000000     0.659900000000     0.443576666667     0          
O        O      0.198880000000     0.635160000000     0.500000000000     0          
T        Si     0.244000000000     0.849375000000     0.588653333333     0          
T        Si     0.178140000000     0.880390000000     0.623056666667     0          
T        Si     0.120815000000     0.937395000000     0.622910000000     0          
T        Si     0.221320000000     0.778680000000     0.545803333333     0          
T        Si     0.248035000000     0.808490000000     0.333333333333     0          
O        O      0.250000000000     0.750000000000     0.560836666667     0          
O        O      0.221370000000     0.778630000000     0.500000000000     0          
O        O      0.231405000000     0.818055000000     0.560403333333     0          
O        O      0.277910000000     0.869545000000     0.570690000000     0          
O        O      0.254510000000     0.832420000000     0.629256666667     0          
O        O      0.276565000000     0.776565000000     0.333333333333     0          
O        O      0.208660000000     0.791340000000     0.333333333333     0          
O        O      0.212195000000     0.877530000000     0.595283333333     0          
O        O      0.150235000000     0.849765000000     0.611263333333     0          
O        O      0.190310000000     0.874855000000     0.333333333333     0          
O        O      0.159210000000     0.918655000000     0.618550000000     0          
O        O      0.090100000000     0.909900000000     0.610243333333     0          
O        O      0.114840000000     0.948880000000     0.333333333333     0          
T        Si     0.400625000000     0.994000000000     0.421986666667     0          
T        Si     0.369610000000     0.928140000000     0.456390000000     0          
T        Si     0.312605000000     0.870815000000     0.456243333333     0          
T        Si     0.471320000000     0.971320000000     0.379136666667     0          
T        Si     0.441510000000     0.998035000000     0.500000000000     0          
O        O      0.471370000000     0.971370000000     0.333333333333     0          
O        O      0.431945000000     0.981405000000     0.393736666667     0          
O        O      0.380455000000     0.527910000000     0.404023333333     0          
O        O      0.417580000000     0.504510000000     0.462590000000     0          
O        O      0.473435000000     0.526565000000     0.500000000000     0          
O        O      0.458660000000     0.958660000000     0.500000000000     0          
O        O      0.372470000000     0.962195000000     0.428616666667     0          
O        O      0.400235000000     0.900235000000     0.444596666667     0          
O        O      0.375145000000     0.940310000000     0.500000000000     0          
O        O      0.331345000000     0.909210000000     0.451883333333     0          
O        O      0.340100000000     0.840100000000     0.443576666667     0          
O        O      0.301120000000     0.864840000000     0.500000000000     0          
T        Si     0.256000000000     0.650625000000     0.588653333333     0          
T        Si     0.321860000000     0.619610000000     0.623056666667     0          
T        Si     0.379185000000     0.562605000000     0.622910000000     0          
T        Si     0.278680000000     0.721320000000     0.545803333333     0          
T        Si     0.251965000000     0.691510000000     0.333333333333     0          
O        O      0.278630000000     0.721370000000     0.500000000000     0          
O        O      0.268595000000     0.681945000000     0.560403333333     0          
O        O      0.222090000000     0.630455000000     0.570690000000     0          
O        O      0.245490000000     0.667580000000     0.629256666667     0          
O        O      0.223435000000     0.723435000000     0.333333333333     0          
O        O      0.291340000000     0.708660000000     0.333333333333     0          
O        O      0.287805000000     0.622470000000     0.595283333333     0          
O        O      0.349765000000     0.650235000000     0.611263333333     0          
O        O      0.309690000000     0.625145000000     0.333333333333     0          
O        O      0.340790000000     0.581345000000     0.618550000000     0          
O        O      0.409900000000     0.590100000000     0.610243333333     0          
O        O      0.385160000000     0.551120000000     0.333333333333     0          
T        Si     0.349375000000     0.744000000000     0.411346666667     0          
T        Si     0.380390000000     0.678140000000     0.376943333333     0          
T        Si     0.437395000000     0.620815000000     0.377090000000     0          
T        Si     0.278680000000     0.721320000000     0.454196666667     0          
T        Si     0.308490000000     0.748035000000     0.333333333333     0          
O        O      0.250000000000     0.750000000000     0.439163333333     0          
O        O      0.318055000000     0.731405000000     0.439596666667     0          
O        O      0.369545000000     0.777910000000     0.429310000000     0          
O        O      0.332420000000     0.754510000000     0.370743333333     0          
O        O      0.377530000000     0.712195000000     0.404716666667     0          
O        O      0.349765000000     0.650235000000     0.388736666667     0          
O        O      0.374855000000     0.690310000000     0.333333333333     0          
O        O      0.418655000000     0.659210000000     0.381450000000     0          
O        O      0.409900000000     0.590100000000     0.389756666667     0          
O        O      0.448880000000     0.614840000000     0.333333333333     0          
T        Si     0.006000000000     0.599375000000     0.578013333333     0          
T        Si     0.071860000000     0.630390000000     0.543610000000     0          
T        Si     0.129185000000     0.687395000000     0.543756666667     0          
T        Si     0.028680000000     0.528680000000     0.620863333333     0          
T        Si     0.001965000000     0.558490000000     0.500000000000     0          
O        O      0.000000000000     0.500000000000     0.605830000000     0          
O        O      0.018595000000     0.568055000000     0.606263333333     0          
O        O      0.472090000000     0.619545000000     0.595976666667     0          
O        O      0.495490000000     0.582420000000     0.537410000000     0          
O        O      0.037805000000     0.627530000000     0.571383333333     0          
O        O      0.099765000000     0.599765000000     0.555403333333     0          
O        O      0.059690000000     0.624855000000     0.500000000000     0          
O        O      0.090790000000     0.668655000000     0.548116666667     0          
O        O      0.159900000000     0.659900000000     0.556423333333     0          
O        O      0.135160000000     0.698880000000     0.500000000000     0          
T        Si     0.150625000000     0.756000000000     0.411346666667     0          
T        Si     0.119610000000     0.821860000000     0.376943333333     0          
T        Si     0.062605000000     0.879185000000     0.377090000000     0          
T        Si     0.221320000000     0.778680000000     0.454196666667     0          
T        Si     0.191510000000     0.751965000000     0.333333333333     0          
O        O      0.181945000000     0.768595000000     0.439596666667     0          
O        O      0.130455000000     0.722090000000     0.429310000000     0          
O        O      0.167580000000     0.745490000000     0.370743333333     0          
O        O      0.122470000000     0.787805000000     0.404716666667     0          
O        O      0.150235000000     0.849765000000     0.388736666667     0          
O        O      0.125145000000     0.809690000000     0.333333333333     0          
O        O      0.081345000000     0.840790000000     0.381450000000     0          
O        O      0.090100000000     0.909900000000     0.389756666667     0          
O        O      0.051120000000     0.885160000000     0.333333333333     0          
T        Si     0.494000000000     0.900625000000     0.578013333333     0          
T        Si     0.428140000000     0.869610000000     0.543610000000     0          
T        Si     0.370815000000     0.812605000000     0.543756666667     0          
T        Si     0.471320000000     0.971320000000     0.620863333333     0          
T        Si     0.498035000000     0.941510000000     0.500000000000     0          
O        O      0.481405000000     0.931945000000     0.606263333333     0          
O        O      0.027910000000     0.880455000000     0.595976666667     0          
O        O      0.004510000000     0.917580000000     0.537410000000     0          
O        O      0.462195000000     0.872470000000     0.571383333333     0          
O        O      0.400235000000     0.900235000000     0.555403333333     0          
O        O      0.440310000000     0.875145000000     0.500000000000     0          
O        O      0.409210000000     0.831345000000     0.548116666667     0          
O        O      0.340100000000     0.840100000000     0.556423333333     0          
O        O      0.364840000000     0.801120000000     0.500000000000     0          
T        Si     0.400625000000     0.994000000000     0.578013333333     0          
T        Si     0.369610000000     0.928140000000     0.543610000000     0          
T        Si     0.312605000000     0.870815000000     0.543756666667     0          
O        O      0.431945000000     0.981405000000     0.606263333333     0          
O        O      0.380455000000     0.527910000000     0.595976666667     0          
O        O      0.417580000000     0.504510000000     0.537410000000     0          
O        O      0.372470000000     0.962195000000     0.571383333333     0          
O        O      0.331345000000     0.909210000000     0.548116666667     0          
T        Si     0.256000000000     0.650625000000     0.411346666667     0          
T        Si     0.321860000000     0.619610000000     0.376943333333     0          
T        Si     0.379185000000     0.562605000000     0.377090000000     0          
O        O      0.268595000000     0.681945000000     0.439596666667     0          
O        O      0.222090000000     0.630455000000     0.429310000000     0          
O        O      0.245490000000     0.667580000000     0.370743333333     0          
O        O      0.287805000000     0.622470000000     0.404716666667     0          
O        O      0.340790000000     0.581345000000     0.381450000000     0          
T        Si     0.099375000000     0.506000000000     0.578013333333     0          
T        Si     0.130390000000     0.571860000000     0.543610000000     0          
T        Si     0.187395000000     0.629185000000     0.543756666667     0          
O        O      0.068055000000     0.518595000000     0.606263333333     0          
O        O      0.119545000000     0.972090000000     0.595976666667     0          
O        O      0.082420000000     0.995490000000     0.537410000000     0          
O        O      0.127530000000     0.537805000000     0.571383333333     0          
O        O      0.168655000000     0.590790000000     0.548116666667     0          
T        Si     0.244000000000     0.849375000000     0.411346666667     0          
T        Si     0.178140000000     0.880390000000     0.376943333333     0          
T        Si     0.120815000000     0.937395000000     0.377090000000     0          
O        O      0.231405000000     0.818055000000     0.439596666667     0          
O        O      0.277910000000     0.869545000000     0.429310000000     0          
O        O      0.254510000000     0.832420000000     0.370743333333     0          
O        O      0.212195000000     0.877530000000     0.404716666667     0          
O        O      0.159210000000     0.918655000000     0.381450000000     0          
T        Si     0.150625000000     0.756000000000     0.588653333333     0          
T        Si     0.119610000000     0.821860000000     0.623056666667     0          
T        Si     0.062605000000     0.879185000000     0.622910000000     0          
O        O      0.181945000000     0.768595000000     0.560403333333     0          
O        O      0.130455000000     0.722090000000     0.570690000000     0          
O        O      0.167580000000     0.745490000000     0.629256666667     0          
O        O      0.122470000000     0.787805000000     0.595283333333     0          
O        O      0.081345000000     0.840790000000     0.618550000000     0          
T        Si     0.494000000000     0.900625000000     0.421986666667     0          
T        Si     0.428140000000     0.869610000000     0.456390000000     0          
T        Si     0.370815000000     0.812605000000     0.456243333333     0          
O        O      0.481405000000     0.931945000000     0.393736666667     0          
O        O      0.027910000000     0.880455000000     0.404023333333     0          
O        O      0.004510000000     0.917580000000     0.462590000000     0          
O        O      0.462195000000     0.872470000000     0.428616666667     0          
O        O      0.409210000000     0.831345000000     0.451883333333     0          
T        Si     0.349375000000     0.744000000000     0.588653333333     0          
T        Si     0.380390000000     0.678140000000     0.623056666667     0          
T        Si     0.437395000000     0.620815000000     0.622910000000     0          
O        O      0.318055000000     0.731405000000     0.560403333333     0          
O        O      0.369545000000     0.777910000000     0.570690000000     0          
O        O      0.332420000000     0.754510000000     0.629256666667     0          
O        O      0.377530000000     0.712195000000     0.595283333333     0          
O        O      0.418655000000     0.659210000000     0.618550000000     0          
T        Si     0.006000000000     0.599375000000     0.421986666667     0          
T        Si     0.071860000000     0.630390000000     0.456390000000     0          
T        Si     0.129185000000     0.687395000000     0.456243333333     0          
O        O      0.018595000000     0.568055000000     0.393736666667     0          
O        O      0.472090000000     0.619545000000     0.404023333333     0          
O        O      0.495490000000     0.582420000000     0.462590000000     0          
O        O      0.037805000000     0.627530000000     0.428616666667     0          
O        O      0.090790000000     0.668655000000     0.451883333333     0          
T        Si     0.099375000000     0.506000000000     0.755320000000     0          
T        Si     0.130390000000     0.571860000000     0.789723333333     0          
T        Si     0.187395000000     0.629185000000     0.789576666667     0          
T        Si     0.028680000000     0.528680000000     0.712470000000     0          
T        Si     0.058490000000     0.501965000000     0.833333333333     0          
O        O      0.000000000000     0.500000000000     0.727503333333     0          
O        O      0.028630000000     0.528630000000     0.666666666667     0          
O        O      0.068055000000     0.518595000000     0.727070000000     0          
O        O      0.119545000000     0.972090000000     0.737356666667     0          
O        O      0.082420000000     0.995490000000     0.795923333333     0          
O        O      0.026565000000     0.973435000000     0.833333333333     0          
O        O      0.041340000000     0.541340000000     0.833333333333     0          
O        O      0.127530000000     0.537805000000     0.761950000000     0          
O        O      0.099765000000     0.599765000000     0.777930000000     0          
O        O      0.124855000000     0.559690000000     0.833333333333     0          
O        O      0.168655000000     0.590790000000     0.785216666667     0          
O        O      0.159900000000     0.659900000000     0.776910000000     0          
O        O      0.198880000000     0.635160000000     0.833333333333     0          
T        Si     0.244000000000     0.849375000000     0.921986666667     0          
T        Si     0.178140000000     0.880390000000     0.956390000000     0          
T        Si     0.120815000000     0.937395000000     0.956243333333     0          
T        Si     0.221320000000     0.778680000000     0.879136666667     0          
T        Si     0.248035000000     0.808490000000     0.666666666667     0          
O        O      0.250000000000     0.750000000000     0.894170000000     0          
O        O      0.221370000000     0.778630000000     0.833333333333     0          
O        O      0.231405000000     0.818055000000     0.893736666667     0          
O        O      0.277910000000     0.869545000000     0.904023333333     0          
O        O      0.254510000000     0.832420000000     0.962590000000     0          
O        O      0.276565000000     0.776565000000     0.666666666667     0          
O        O      0.208660000000     0.791340000000     0.666666666667     0          
O        O      0.212195000000     0.877530000000     0.928616666667     0          
O        O      0.150235000000     0.849765000000     0.944596666667     0          
O        O      0.190310000000     0.874855000000     0.666666666667     0          
O        O      0.159210000000     0.918655000000     0.951883333333     0          
O        O      0.090100000000     0.909900000000     0.943576666667     0          
O        O      0.114840000000     0.948880000000     0.666666666667     0          
T        Si     0.400625000000     0.994000000000     0.755320000000     0          
T        Si     0.369610000000     0.928140000000     0.789723333333     0          
T        Si     0.312605000000     0.870815000000     0.789576666667     0          
T        Si     0.471320000000     0.971320000000     0.712470000000     0          
T        Si     0.441510000000     0.998035000000     0.833333333333     0          
O        O      0.471370000000     0.971370000000     0.666666666667     0          
O        O      0.431945000000     0.981405000000     0.727070000000     0          
O        O      0.380455000000     0.527910000000     0.737356666667     0          
O        O      0.417580000000     0.504510000000     0.795923333333     0          
O        O      0.473435000000     0.526565000000     0.833333333333     0          
O        O      0.458660000000     0.958660000000     0.833333333333     0          
O        O      0.372470000000     0.962195000000     0.761950000000     0          
O        O      0.400235000000     0.900235000000     0.777930000000     0          
O        O      0.375145000000     0.940310000000     0.833333333333     0          
O        O      0.331345000000     0.909210000000     0.785216666667     0          
O        O      0.340100000000     0.840100000000     0.776910000000     0          
O        O      0.301120000000     0.864840000000     0.833333333333     0          
T        Si     0.256000000000     0.650625000000     0.921986666667     0          
T        Si     0.321860000000     0.619610000000     0.956390000000     0          
T        Si     0.379185000000     0.562605000000     0.956243333333     0          
T        Si     0.278680000000     0.721320000000     0.879136666667     0          
T        Si     0.251965000000     0.691510000000     0.666666666667     0          
O        O      0.278630000000     0.721370000000     0.833333333333     0          
O        O      0.268595000000     0.681945000000     0.893736666667     0          
O        O      0.222090000000     0.630455000000     0.904023333333     0          
O        O      0.245490000000     0.667580000000     0.962590000000     0          
O        O      0.223435000000     0.723435000000     0.666666666667     0          
O        O      0.291340000000     0.708660000000     0.666666666667     0          
O        O      0.287805000000     0.622470000000     0.928616666667     0          
O        O      0.349765000000     0.650235000000     0.944596666667     0          
O        O      0.309690000000     0.625145000000     0.666666666667     0          
O        O      0.340790000000     0.581345000000     0.951883333333     0          
O        O      0.409900000000     0.590100000000     0.943576666667     0          
O        O      0.385160000000     0.551120000000     0.666666666667     0          
T        Si     0.349375000000     0.744000000000     0.744680000000     0          
T        Si     0.380390000000     0.678140000000     0.710276666667     0          
T        Si     0.437395000000     0.620815000000     0.710423333333     0          
T        Si     0.278680000000     0.721320000000     0.787530000000     0          
T        Si     0.308490000000     0.748035000000     0.666666666667     0          
O        O      0.250000000000     0.750000000000     0.772496666667     0          
O        O      0.318055000000     0.731405000000     0.772930000000     0          
O        O      0.369545000000     0.777910000000     0.762643333333     0          
O        O      0.332420000000     0.754510000000     0.704076666667     0          
O        O      0.377530000000     0.712195000000     0.738050000000     0          
O        O      0.349765000000     0.650235000000     0.722070000000     0          
O        O      0.374855000000     0.690310000000     0.666666666667     0          
O        O      0.418655000000     0.659210000000     0.714783333333     0          
O        O      0.409900000000     0.590100000000     0.723090000000     0          
O        O      0.448880000000     0.614840000000     0.666666666667     0          
T        Si     0.006000000000     0.599375000000     0.911346666667     0          
T        Si     0.071860000000     0.630390000000     0.876943333333     0          
T        Si     0.129185000000     0.687395000000     0.877090000000     0          
T        Si     0.028680000000     0.528680000000     0.954196666667     0          
T        Si     0.001965000000     0.558490000000     0.833333333333     0          
O        O      0.000000000000     0.500000000000     0.939163333333     0          
O        O      0.018595000000     0.568055000000     0.939596666667     0          
O        O      0.472090000000     0.619545000000     0.929310000000     0          
O        O      0.495490000000     0.582420000000     0.870743333333     0          
O        O      0.037805000000     0.627530000000     0.904716666667     0          
O        O      0.099765000000     0.599765000000     0.888736666667     0          
O        O      0.059690000000     0.624855000000     0.833333333333     0          
O        O      0.090790000000     0.668655000000     0.881450000000     0          
O        O      0.159900000000     0.659900000000     0.889756666667     0          
O        O      0.135160000000     0.698880000000     0.833333333333     0          
T        Si     0.150625000000     0.756000000000     0.744680000000     0          
T        Si     0.119610000000     0.821860000000     0.710276666667     0          
T        Si     0.062605000000     0.879185000000     0.710423333333     0          
T        Si     0.221320000000     0.778680000000     0.787530000000     0          
T        Si     0.191510000000     0.751965000000     0.666666666667     0          
O        O      0.181945000000     0.768595000000     0.772930000000     0          
O        O      0.130455000000     0.722090000000     0.762643333333     0          
O        O      0.167580000000     0.745490000000     0.704076666667     0          
O        O      0.122470000000     0.787805000000     0.738050000000     0          
O        O      0.150235000000     0.849765000000     0.722070000000     0          
O        O      0.125145000000     0.809690000000     0.666666666667     0          
O        O      0.081345000000     0.840790000000     0.714783333333     0          
O        O      0.090100000000     0.909900000000     0.723090000000     0          
O        O      0.051120000000     0.885160000000     0.666666666667     0          
T        Si     0.494000000000     0.900625000000     0.911346666667     0          
T        Si     0.428140000000     0.869610000000     0.876943333333     0          
T        Si     0.370815000000     0.812605000000     0.877090000000     0          
T        Si     0.471320000000     0.971320000000     0.954196666667     0          
T        Si     0.498035000000     0.941510000000     0.833333333333     0          
O        O      0.481405000000     0.931945000000     0.939596666667     0          
O        O      0.027910000000     0.880455000000     0.929310000000     0          
O        O      0.004510000000     0.917580000000     0.870743333333     0          
O        O      0.462195000000     0.872470000000     0.904716666667     0          
O        O      0.400235000000     0.900235000000     0.888736666667     0          
O        O      0.440310000000     0.875145000000     0.833333333333     0          
O        O      0.409210000000     0.831345000000     0.881450000000     0          
O        O      0.340100000000     0.840100000000     0.889756666667     0          
O        O      0.364840000000     0.801120000000     0.833333333333     0          
T        Si     0.400625000000     0.994000000000     0.911346666667     0          
T        Si     0.369610000000     0.928140000000     0.876943333333     0          
T        Si     0.312605000000     0.870815000000     0.877090000000     0          
O        O      0.431945000000     0.981405000000     0.939596666667     0          
O        O      0.380455000000     0.527910000000     0.929310000000     0          
O        O      0.417580000000     0.504510000000     0.870743333333     0          
O        O      0.372470000000     0.962195000000     0.904716666667     0          
O        O      0.331345000000     0.909210000000     0.881450000000     0          
T        Si     0.256000000000     0.650625000000     0.744680000000     0          
T        Si     0.321860000000     0.619610000000     0.710276666667     0          
T        Si     0.379185000000     0.562605000000     0.710423333333     0          
O        O      0.268595000000     0.681945000000     0.772930000000     0          
O        O      0.222090000000     0.630455000000     0.762643333333     0          
O        O      0.245490000000     0.667580000000     0.704076666667     0          
O        O      0.287805000000     0.622470000000     0.738050000000     0          
O        O      0.340790000000     0.581345000000     0.714783333333     0          
T        Si     0.099375000000     0.506000000000     0.911346666667     0          
T        Si     0.130390000000     0.571860000000     0.876943333333     0          
T        Si     0.187395000000     0.629185000000     0.877090000000     0          
O        O      0.068055000000     0.518595000000     0.939596666667     0          
O        O      0.119545000000     0.972090000000     0.929310000000     0          
O        O      0.082420000000     0.995490000000     0.870743333333     0          
O        O      0.127530000000     0.537805000000     0.904716666667     0          
O        O      0.168655000000     0.590790000000     0.881450000000     0          
T        Si     0.244000000000     0.849375000000     0.744680000000     0          
T        Si     0.178140000000     0.880390000000     0.710276666667     0          
T        Si     0.120815000000     0.937395000000     0.710423333333     0          
O        O      0.231405000000     0.818055000000     0.772930000000     0          
O        O      0.277910000000     0.869545000000     0.762643333333     0          
O        O      0.254510000000     0.832420000000     0.704076666667     0          
O        O      0.212195000000     0.877530000000     0.738050000000     0          
O        O      0.159210000000     0.918655000000     0.714783333333     0          
T        Si     0.150625000000     0.756000000000     0.921986666667     0          
T        Si     0.119610000000     0.821860000000     0.956390000000     0          
T        Si     0.062605000000     0.879185000000     0.956243333333     0          
O        O      0.181945000000     0.768595000000     0.893736666667     0          
O        O      0.130455000000     0.722090000000     0.904023333333     0          
O        O      0.167580000000     0.745490000000     0.962590000000     0          
O        O      0.122470000000     0.787805000000     0.928616666667     0          
O        O      0.081345000000     0.840790000000     0.951883333333     0          
T        Si     0.494000000000     0.900625000000     0.755320000000     0          
T        Si     0.428140000000     0.869610000000     0.789723333333     0          
T        Si     0.370815000000     0.812605000000     0.789576666667     0          
O        O      0.481405000000     0.931945000000     0.727070000000     0          
O        O      0.027910000000     0.880455000000     0.737356666667     0          
O        O      0.004510000000     0.917580000000     0.795923333333     0          
O        O      0.462195000000     0.872470000000     0.761950000000     0          
O        O      0.409210000000     0.831345000000     0.785216666667     0          
T        Si     0.349375000000     0.744000000000     0.921986666667     0          
T        Si     0.380390000000     0.678140000000     0.956390000000     0          
T        Si     0.437395000000     0.620815000000     0.956243333333     0          
O        O      0.318055000000     0.731405000000     0.893736666667     0          
O        O      0.369545000000     0.777910000000     0.904023333333     0          
O        O      0.332420000000     0.754510000000     0.962590000000     0          
O        O      0.377530000000     0.712195000000     0.928616666667     0          
O        O      0.418655000000     0.659210000000     0.951883333333     0          
T        Si     0.006000000000     0.599375000000     0.755320000000     0          
T        Si     0.071860000000     0.630390000000     0.789723333333     0          
T        Si     0.129185000000     0.687395000000     0.789576666667     0          
O        O      0.018595000000     0.568055000000     0.727070000000     0          
O        O      0.472090000000     0.619545000000     0.737356666667     0          
O        O      0.495490000000     0.582420000000     0.795923333333     0          
O        O      0.037805000000     0.627530000000     0.761950000000     0          
O        O      0.090790000000     0.668655000000     0.785216666667     0          
T        Si     0.599375000000     0.006000000000     0.088653333333     0          
T        Si     0.630390000000     0.071860000000     0.123056666667     0          
T        Si     0.687395000000     0.129185000000     0.122910000000     0          
T        Si     0.528680000000     0.028680000000     0.045803333333     0          
T        Si     0.558490000000     0.001965000000     0.166666666667     0          
O        O      0.500000000000     0.000000000000     0.060836666667     0          
O        O      0.528630000000     0.028630000000     0.000000000000     0          
O        O      0.568055000000     0.018595000000     0.060403333333     0          
O        O      0.619545000000     0.472090000000     0.070690000000     0          
O        O      0.582420000000     0.495490000000     0.129256666667     0          
O        O      0.526565000000     0.473435000000     0.166666666667     0          
O        O      0.541340000000     0.041340000000     0.166666666667     0          
O        O      0.627530000000     0.037805000000     0.095283333333     0          
O        O      0.599765000000     0.099765000000     0.111263333333     0          
O        O      0.624855000000     0.059690000000     0.166666666667     0          
O        O      0.668655000000     0.090790000000     0.118550000000     0          
O        O      0.659900000000     0.159900000000     0.110243333333     0          
O        O      0.698880000000     0.135160000000     0.166666666667     0          
T        Si     0.744000000000     0.349375000000     0.255320000000     0          
T        Si     0.678140000000     0.380390000000     0.289723333333     0          
T        Si     0.620815000000     0.437395000000     0.289576666667     0          
T        Si     0.721320000000     0.278680000000     0.212470000000     0          
T        Si     0.748035000000     0.308490000000     0.000000000000     0          
O        O      0.750000000000     0.250000000000     0.227503333333     0          
O        O      0.721370000000     0.278630000000     0.166666666667     0          
O        O      0.731405000000     0.318055000000     0.227070000000     0          
O        O      0.777910000000     0.369545000000     0.237356666667     0          
O        O      0.754510000000     0.332420000000     0.295923333333     0          
O        O      0.776565000000     0.276565000000     0.000000000000     0          
O        O      0.708660000000     0.291340000000     0.000000000000     0          
O        O      0.712195000000     0.377530000000     0.261950000000     0          
O        O      0.650235000000     0.349765000000     0.277930000000     0          
O        O      0.690310000000     0.374855000000     0.000000000000     0          
O        O      0.659210000000     0.418655000000     0.285216666667     0          
O        O      0.590100000000     0.409900000000     0.276910000000     0          
O        O      0.614840000000     0.448880000000     0.000000000000     0          
T        Si     0.900625000000     0.494000000000     0.088653333333     0          
T        Si     0.869610000000     0.428140000000     0.123056666667     0          
T        Si     0.812605000000     0.370815000000     0.122910000000     0          
T        Si     0.971320000000     0.471320000000     0.045803333333     0          
T        Si     0.941510000000     0.498035000000     0.166666666667     0          
O        O      0.971370000000     0.471370000000     0.000000000000     0          
O        O      0.931945000000     0.481405000000     0.060403333333     0          
O        O      0.880455000000     0.027910000000     0.070690000000     0          
O        O      0.917580000000     0.004510000000     0.129256666667     0          
O        O      0.973435000000     0.026565000000     0.166666666667     0          
O        O      0.958660000000     0.458660000000     0.166666666667     0          
O        O      0.872470000000     0.462195000000     0.095283333333     0          
O        O      0.900235000000     0.400235000000     0.111263333333     0          
O        O      0.875145000000     0.440310000000     0.166666666667     0          
O        O      0.831345000000     0.409210000000     0.118550000000     0          
O        O      0.840100000000     0.340100000000     0.110243333333     0          
O        O      0.801120000000     0.364840000000     0.166666666667     0          
T        Si     0.756000000000     0.150625000000     0.255320000000     0          
T        Si     0.821860000000     0.119610000000     0.289723333333     0          
T        Si     0.879185000000     0.062605000000     0.289576666667     0          
T        Si     0.778680000000     0.221320000000     0.212470000000     0          
T        Si     0.751965000000     0.191510000000     0.000000000000     0          
O        O      0.778630000000     0.221370000000     0.166666666667     0          
O        O      0.768595000000     0.181945000000     0.227070000000     0          
O        O      0.722090000000     0.130455000000     0.237356666667     0          
O        O      0.745490000000     0.167580000000     0.295923333333     0          
O        O      0.723435000000     0.223435000000     0.000000000000     0          
O        O      0.791340000000     0.208660000000     0.000000000000     0          
O        O      0.787805000000     0.122470000000     0.261950000000     0          
O        O      0.849765000000     0.150235000000     0.277930000000     0          
O        O      0.809690000000     0.125145000000     0.000000000000     0          
O        O      0.840790000000     0.081345000000     0.285216666667     0          
O        O      0.909900000000     0.090100000000     0.276910000000     0          
O        O      0.885160000000     0.051120000000     0.000000000000     0          
T        Si     0.849375000000     0.244000000000     0.078013333333     0          
T        Si     0.880390000000     0.178140000000     0.043610000000     0          
T        Si     0.937395000000     0.120815000000     0.043756666667     0          
T        Si     0.778680000000     0.221320000000     0.120863333333     0          
T        Si     0.808490000000     0.248035000000     0.000000000000     0          
O        O      0.750000000000     0.250000000000     0.105830000000     0          
O        O      0.818055000000     0.231405000000     0.106263333333     0          
O        O      0.869545000000     0.277910000000     0.095976666667     0          
O        O      0.832420000000     0.254510000000     0.037410000000     0          
O        O      0.877530000000     0.212195000000     0.071383333333     0          
O        O      0.849765000000     0.150235000000     0.055403333333     0          
O        O      0.874855000000     0.190310000000     0.000000000000     0          
O        O      0.918655000000     0.159210000000     0.048116666667     0          
O        O      0.909900000000     0.090100000000     0.056423333333     0          
O        O      0.948880000000     0.114840000000     0.000000000000     0          
T        Si     0.506000000000     0.099375000000     0.244680000000     0          
T        Si     0.571860000000     0.130390000000     0.210276666667     0          
T        Si     0.629185000000     0.187395000000     0.210423333333     0          
T        Si     0.528680000000     0.028680000000     0.287530000000     0          
T        Si     0.501965000000     0.058490000000     0.166666666667     0          
O        O      0.500000000000     0.000000000000     0.272496666667     0          
O        O      0.518595000000     0.068055000000     0.272930000000     0          
O        O      0.972090000000     0.119545000000     0.262643333333     0          
O        O      0.995490000000     0.082420000000     0.204076666667     0          
O        O      0.537805000000     0.127530000000     0.238050000000     0          
O        O      0.599765000000     0.099765000000     0.222070000000     0          
O        O      0.559690000000     0.124855000000     0.166666666667     0          
O        O      0.590790000000     0.168655000000     0.214783333333     0          
O        O      0.659900000000     0.159900000000     0.223090000000     0          
O        O      0.635160000000     0.198880000000     0.166666666667     0          
T        Si     0.650625000000     0.256000000000     0.078013333333     0          
T        Si     0.619610000000     0.321860000000     0.043610000000     0          
T        Si     0.562605000000     0.379185000000     0.043756666667     0          
T        Si     0.721320000000     0.278680000000     0.120863333333     0          
T        Si     0.691510000000     0.251965000000     0.000000000000     0          
O        O      0.681945000000     0.268595000000     0.106263333333     0          
O        O      0.630455000000     0.222090000000     0.095976666667     0          
O        O      0.667580000000     0.245490000000     0.037410000000     0          
O        O      0.622470000000     0.287805000000     0.071383333333     0          
O        O      0.650235000000     0.349765000000     0.055403333333     0          
O        O      0.625145000000     0.309690000000     0.000000000000     0          
O        O      0.581345000000     0.340790000000     0.048116666667     0          
O        O      0.590100000000     0.409900000000     0.056423333333     0          
O        O      0.551120000000     0.385160000000     0.000000000000     0          
T        Si     0.994000000000     0.400625000000     0.244680000000     0          
T        Si     0.928140000000     0.369610000000     0.210276666667     0          
T        Si     0.870815000000     0.312605000000     0.210423333333     0          
T        Si     0.971320000000     0.471320000000     0.287530000000     0          
T        Si     0.998035000000     0.441510000000     0.166666666667     0          
O        O      0.981405000000     0.431945000000     0.272930000000     0          
O        O      0.527910000000     0.380455000000     0.262643333333     0          
O        O      0.504510000000     0.417580000000     0.204076666667     0          
O        O      0.962195000000     0.372470000000     0.238050000000     0          
O        O      0.900235000000     0.400235000000     0.222070000000     0          
O        O      0.940310000000     0.375145000000     0.166666666667     0          
O        O      0.909210000000     0.331345000000     0.214783333333     0          
O        O      0.840100000000     0.340100000000     0.223090000000     0          
O        O      0.864840000000     0.301120000000     0.166666666667     0          
T        Si     0.900625000000     0.494000000000     0.244680000000     0          
T        Si     0.869610000000     0.428140000000     0.210276666667     0          
T        Si     0.812605000000     0.370815000000     0.210423333333     0          
O        O      0.931945000000     0.481405000000     0.272930000000     0          
O        O      0.880455000000     0.027910000000     0.262643333333     0          
O        O      0.917580000000     0.004510000000     0.204076666667     0          
O        O      0.872470000000     0.462195000000     0.238050000000     0          
O        O      0.831345000000     0.409210000000     0.214783333333     0          
T        Si     0.756000000000     0.150625000000     0.078013333333     0          
T        Si     0.821860000000     0.119610000000     0.043610000000     0          
T        Si     0.879185000000     0.062605000000     0.043756666667     0          
O        O      0.768595000000     0.181945000000     0.106263333333     0          
O        O      0.722090000000     0.130455000000     0.095976666667     0          
O        O      0.745490000000     0.167580000000     0.037410000000     0          
O        O      0.787805000000     0.122470000000     0.071383333333     0          
O        O      0.840790000000     0.081345000000     0.048116666667     0          
T        Si     0.599375000000     0.006000000000     0.244680000000     0          
T        Si     0.630390000000     0.071860000000     0.210276666667     0          
T        Si     0.687395000000     0.129185000000     0.210423333333     0          
O        O      0.568055000000     0.018595000000     0.272930000000     0          
O        O      0.619545000000     0.472090000000     0.262643333333     0          
O        O      0.582420000000     0.495490000000     0.204076666667     0          
O        O      0.627530000000     0.037805000000     0.238050000000     0          
O        O      0.668655000000     0.090790000000     0.214783333333     0          
T        Si     0.744000000000     0.349375000000     0.078013333333     0          
T        Si     0.678140000000     0.380390000000     0.043610000000     0          
T        Si     0.620815000000     0.437395000000     0.043756666667     0          
O        O      0.731405000000     0.318055000000     0.106263333333     0          
O        O      0.777910000000     0.369545000000     0.095976666667     0          
O        O      0.754510000000     0.332420000000     0.037410000000     0          
O        O      0.712195000000     0.377530000000     0.071383333333     0          
O        O      0.659210000000     0.418655000000     0.048116666667     0          
T        Si     0.650625000000     0.256000000000     0.255320000000     0          
T        Si     0.619610000000     0.321860000000     0.289723333333     0          
T        Si     0.562605000000     0.379185000000     0.289576666667     0          
O        O      0.681945000000     0.268595000000     0.227070000000     0          
O        O      0.630455000000     0.222090000000     0.237356666667     0          
O        O      0.667580000000     0.245490000000     0.295923333333     0          
O        O      0.622470000000     0.287805000000     0.261950000000     0          
O        O      0.581345000000     0.340790000000     0.285216666667     0          
T        Si     0.994000000000     0.400625000000     0.088653333333     0          
T        Si     0.928140000000     0.369610000000     0.123056666667     0          
T        Si     0.870815000000     0.312605000000     0.122910000000     0          
O        O      0.981405000000     0.431945000000     0.060403333333     0          
O        O      0.527910000000     0.380455000000     0.070690000000     0          
O        O      0.504510000000     0.417580000000     0.129256666667     0          
O        O      0.962195000000     0.372470000000     0.095283333333     0          
O        O      0.909210000000     0.331345000000     0.118550000000     0          
T        Si     0.849375000000     0.244000000000     0.255320000000     0          
T        Si     0.880390000000     0.178140000000     0.289723333333     0          
T        Si     0.937395000000     0.120815000000     0.289576666667     0          
O        O      0.818055000000     0.231405000000     0.227070000000     0          
O        O      0.869545000000     0.277910000000     0.237356666667     0          
O        O      0.832420000000     0.254510000000     0.295923333333     0          
O        O      0.877530000000     0.212195000000     0.261950000000     0          
O        O      0.918655000000     0.159210000000     0.285216666667     0          
T        Si     0.506000000000     0.099375000000     0.088653333333     0          
T        Si     0.571860000000     0.130390000000     0.123056666667     0          
T        Si     0.629185000000     0.187395000000     0.122910000000     0          
O        O      0.518595000000     0.068055000000     0.060403333333     0          
O        O      0.972090000000     0.119545000000     0.070690000000     0          
O        O      0.995490000000     0.082420000000     0.129256666667     0          
O        O      0.537805000000     0.127530000000     0.095283333333     0          
O        O      0.590790000000     0.168655000000     0.118550000000     0          
T        Si     0.599375000000     0.006000000000     0.421986666667     0          
T        Si     0.630390000000     0.071860000000     0.456390000000     0          
T        Si     0.687395000000     0.129185000000     0.456243333333     0          
T        Si     0.528680000000     0.028680000000     0.379136666667     0          
T        Si     0.558490000000     0.001965000000     0.500000000000     0          
O        O      0.500000000000     0.000000000000     0.394170000000     0          
O        O      0.528630000000     0.028630000000     0.333333333333     0          
O        O      0.568055000000     0.018595000000     0.393736666667     0          
O        O      0.619545000000     0.472090000000     0.404023333333     0          
O        O      0.582420000000     0.495490000000     0.462590000000     0          
O        O      0.526565000000     0.473435000000     0.500000000000     0          
O        O      0.541340000000     0.041340000000     0.500000000000     0          
O        O      0.627530000000     0.037805000000     0.428616666667     0          
O        O      0.599765000000     0.099765000000     0.444596666667     0          
O        O      0.624855000000     0.059690000000     0.500000000000     0          
O        O      0.668655000000     0.090790000000     0.451883333333     0          
O        O      0.659900000000     0.159900000000     0.443576666667     0          
O        O      0.698880000000     0.135160000000     0.500000000000     0          
T        Si     0.744000000000     0.349375000000     0.588653333333     0          
T        Si     0.678140000000     0.380390000000     0.623056666667     0          
T        Si     0.620815000000     0.437395000000     0.622910000000     0          
T        Si     0.721320000000     0.278680000000     0.545803333333     0          
T        Si     0.748035000000     0.308490000000     0.333333333333     0          
O        O      0.750000000000     0.250000000000     0.560836666667     0          
O        O      0.721370000000     0.278630000000     0.500000000000     0          
O        O      0.731405000000     0.318055000000     0.560403333333     0          
O        O      0.777910000000     0.369545000000     0.570690000000     0          
O        O      0.754510000000     0.332420000000     0.629256666667     0          
O        O      0.776565000000     0.276565000000     0.333333333333     0          
O        O      0.708660000000     0.291340000000     0.333333333333     0          
O        O      0.712195000000     0.377530000000     0.595283333333     0          
O        O      0.650235000000     0.349765000000     0.611263333333     0          
O        O      0.690310000000     0.374855000000     0.333333333333     0          
O        O      0.659210000000     0.418655000000     0.618550000000     0          
O        O      0.590100000000     0.409900000000     0.610243333333     0          
O        O      0.614840000000     0.448880000000     0.333333333333     0          
T        Si     0.900625000000     0.494000000000     0.421986666667     0          
T        Si     0.869610000000     0.428140000000     0.456390000000     0          
T        Si     0.812605000000     0.370815000000     0.456243333333     0          
T        Si     0.971320000000     0.471320000000     0.379136666667     0          
T        Si     0.941510000000     0.498035000000     0.500000000000     0          
O        O      0.971370000000     0.471370000000     0.333333333333     0          
O        O      0.931945000000     0.481405000000     0.393736666667     0          
O        O      0.880455000000     0.027910000000     0.404023333333     0          
O        O      0.917580000000     0.004510000000     0.462590000000     0          
O        O      0.973435000000     0.026565000000     0.500000000000     0          
O        O      0.958660000000     0.458660000000     0.500000000000     0          
O        O      0.872470000000     0.462195000000     0.428616666667     0          
O        O      0.900235000000     0.400235000000     0.444596666667     0          
O        O      0.875145000000     0.440310000000     0.500000000000     0          
O        O      0.831345000000     0.409210000000     0.451883333333     0          
O        O      0.840100000000     0.340100000000     0.443576666667     0          
O        O      0.801120000000     0.364840000000     0.500000000000     0          
T        Si     0.756000000000     0.150625000000     0.588653333333     0          
T        Si     0.821860000000     0.119610000000     0.623056666667     0          
T        Si     0.879185000000     0.062605000000     0.622910000000     0          
T        Si     0.778680000000     0.221320000000     0.545803333333     0          
T        Si     0.751965000000     0.191510000000     0.333333333333     0          
O        O      0.778630000000     0.221370000000     0.500000000000     0          
O        O      0.768595000000     0.181945000000     0.560403333333     0          
O        O      0.722090000000     0.130455000000     0.570690000000     0          
O        O      0.745490000000     0.167580000000     0.629256666667     0          
O        O      0.723435000000     0.223435000000     0.333333333333     0          
O        O      0.791340000000     0.208660000000     0.333333333333     0          
O        O      0.787805000000     0.122470000000     0.595283333333     0          
O        O      0.849765000000     0.150235000000     0.611263333333     0          
O        O      0.809690000000     0.125145000000     0.333333333333     0          
O        O      0.840790000000     0.081345000000     0.618550000000     0          
O        O      0.909900000000     0.090100000000     0.610243333333     0          
O        O      0.885160000000     0.051120000000     0.333333333333     0          
T        Si     0.849375000000     0.244000000000     0.411346666667     0          
T        Si     0.880390000000     0.178140000000     0.376943333333     0          
T        Si     0.937395000000     0.120815000000     0.377090000000     0          
T        Si     0.778680000000     0.221320000000     0.454196666667     0          
T        Si     0.808490000000     0.248035000000     0.333333333333     0          
O        O      0.750000000000     0.250000000000     0.439163333333     0          
O        O      0.818055000000     0.231405000000     0.439596666667     0          
O        O      0.869545000000     0.277910000000     0.429310000000     0          
O        O      0.832420000000     0.254510000000     0.370743333333     0          
O        O      0.877530000000     0.212195000000     0.404716666667     0          
O        O      0.849765000000     0.150235000000     0.388736666667     0          
O        O      0.874855000000     0.190310000000     0.333333333333     0          
O        O      0.918655000000     0.159210000000     0.381450000000     0          
O        O      0.909900000000     0.090100000000     0.389756666667     0          
O        O      0.948880000000     0.114840000000     0.333333333333     0          
T        Si     0.506000000000     0.099375000000     0.578013333333     0          
T        Si     0.571860000000     0.130390000000     0.543610000000     0          
T        Si     0.629185000000     0.187395000000     0.543756666667     0          
T        Si     0.528680000000     0.028680000000     0.620863333333     0          
T        Si     0.501965000000     0.058490000000     0.500000000000     0          
O        O      0.500000000000     0.000000000000     0.605830000000     0          
O        O      0.518595000000     0.068055000000     0.606263333333     0          
O        O      0.972090000000     0.119545000000     0.595976666667     0          
O        O      0.995490000000     0.082420000000     0.537410000000     0          
O        O      0.537805000000     0.127530000000     0.571383333333     0          
O        O      0.599765000000     0.099765000000     0.555403333333     0          
O        O      0.559690000000     0.124855000000     0.500000000000     0          
O        O      0.590790000000     0.168655000000     0.548116666667     0          
O        O      0.659900000000     0.159900000000     0.556423333333     0          
O        O      0.635160000000     0.198880000000     0.500000000000     0          
T        Si     0.650625000000     0.256000000000     0.411346666667     0          
T        Si     0.619610000000     0.321860000000     0.376943333333     0          
T        Si     0.562605000000     0.379185000000     0.377090000000     0          
T        Si     0.721320000000     0.278680000000     0.454196666667     0          
T        Si     0.691510000000     0.251965000000     0.333333333333     0          
O        O      0.681945000000     0.268595000000     0.439596666667     0          
O        O      0.630455000000     0.222090000000     0.429310000000     0          
O        O      0.667580000000     0.245490000000     0.370743333333     0          
O        O      0.622470000000     0.287805000000     0.404716666667     0          
O        O      0.650235000000     0.349765000000     0.388736666667     0          
O        O      0.625145000000     0.309690000000     0.333333333333     0          
O        O      0.581345000000     0.340790000000     0.381450000000     0          
O        O      0.590100000000     0.409900000000     0.389756666667     0          
O        O      0.551120000000     0.385160000000     0.333333333333     0          
T        Si     0.994000000000     0.400625000000     0.578013333333     0          
T        Si     0.928140000000     0.369610000000     0.543610000000     0          
T        Si     0.870815000000     0.312605000000     0.543756666667     0          
T        Si     0.971320000000     0.471320000000     0.620863333333     0          
T        Si     0.998035000000     0.441510000000     0.500000000000     0          
O        O      0.981405000000     0.431945000000     0.606263333333     0          
O        O      0.527910000000     0.380455000000     0.595976666667     0          
O        O      0.504510000000     0.417580000000     0.537410000000     0          
O        O      0.962195000000     0.372470000000     0.571383333333     0          
O        O      0.900235000000     0.400235000000     0.555403333333     0          
O        O      0.940310000000     0.375145000000     0.500000000000     0          
O        O      0.909210000000     0.331345000000     0.548116666667     0          
O        O      0.840100000000     0.340100000000     0.556423333333     0          
O        O      0.864840000000     0.301120000000     0.500000000000     0          
T        Si     0.900625000000     0.494000000000     0.578013333333     0          
T        Si     0.869610000000     0.428140000000     0.543610000000     0          
T        Si     0.812605000000     0.370815000000     0.543756666667     0          
O        O      0.931945000000     0.481405000000     0.606263333333     0          
O        O      0.880455000000     0.027910000000     0.595976666667     0          
O        O      0.917580000000     0.004510000000     0.537410000000     0          
O        O      0.872470000000     0.462195000000     0.571383333333     0          
O        O      0.831345000000     0.409210000000     0.548116666667     0          
T        Si     0.756000000000     0.150625000000     0.411346666667     0          
T        Si     0.821860000000     0.119610000000     0.376943333333     0          
T        Si     0.879185000000     0.062605000000     0.377090000000     0          
O        O      0.768595000000     0.181945000000     0.439596666667     0          
O        O      0.722090000000     0.130455000000     0.429310000000     0          
O        O      0.745490000000     0.167580000000     0.370743333333     0          
O        O      0.787805000000     0.122470000000     0.404716666667     0          
O        O      0.840790000000     0.081345000000     0.381450000000     0          
T        Si     0.599375000000     0.006000000000     0.578013333333     0          
T        Si     0.630390000000     0.071860000000     0.543610000000     0          
T        Si     0.687395000000     0.129185000000     0.543756666667     0          
O        O      0.568055000000     0.018595000000     0.606263333333     0          
O        O      0.619545000000     0.472090000000     0.595976666667     0          
O        O      0.582420000000     0.495490000000     0.537410000000     0          
O        O      0.627530000000     0.037805000000     0.571383333333     0          
O        O      0.668655000000     0.090790000000     0.548116666667     0          
T        Si     0.744000000000     0.349375000000     0.411346666667     0          
T        Si     0.678140000000     0.380390000000     0.376943333333     0          
T        Si     0.620815000000     0.437395000000     0.377090000000     0          
O        O      0.731405000000     0.318055000000     0.439596666667     0          
O        O      0.777910000000     0.369545000000     0.429310000000     0          
O        O      0.754510000000     0.332420000000     0.370743333333     0          
O        O      0.712195000000     0.377530000000     0.404716666667     0          
O        O      0.659210000000     0.418655000000     0.381450000000     0          
T        Si     0.650625000000     0.256000000000     0.588653333333     0          
T        Si     0.619610000000     0.321860000000     0.623056666667     0          
T        Si     0.562605000000     0.379185000000     0.622910000000     0          
O        O      0.681945000000     0.268595000000     0.560403333333     0          
O        O      0.630455000000     0.222090000000     0.570690000000     0          
O        O      0.667580000000     0.245490000000     0.629256666667     0          
O        O      0.622470000000     0.287805000000     0.595283333333     0          
O        O      0.581345000000     0.340790000000     0.618550000000     0          
T        Si     0.994000000000     0.400625000000     0.421986666667     0          
T        Si     0.928140000000     0.369610000000     0.456390000000     0          
T        Si     0.870815000000     0.312605000000     0.456243333333     0          
O        O      0.981405000000     0.431945000000     0.393736666667     0          
O        O      0.527910000000     0.380455000000     0.404023333333     0          
O        O      0.504510000000     0.417580000000     0.462590000000     0          
O        O      0.962195000000     0.372470000000     0.428616666667     0          
O        O      0.909210000000     0.331345000000     0.451883333333     0          
T        Si     0.849375000000     0.244000000000     0.588653333333     0          
T        Si     0.880390000000     0.178140000000     0.623056666667     0          
T        Si     0.937395000000     0.120815000000     0.622910000000     0          
O        O      0.818055000000     0.231405000000     0.560403333333     0          
O        O      0.869545000000     0.277910000000     0.570690000000     0          
O        O      0.832420000000     0.254510000000     0.629256666667     0          
O        O      0.877530000000     0.212195000000     0.595283333333     0          
O        O      0.918655000000     0.159210000000     0.618550000000     0          
T        Si     0.506000000000     0.099375000000     0.421986666667     0          
T        Si     0.571860000000     0.130390000000     0.456390000000     0          
T        Si     0.629185000000     0.187395000000     0.456243333333     0          
O        O      0.518595000000     0.068055000000     0.393736666667     0          
O        O      0.972090000000     0.119545000000     0.404023333333     0          
O        O      0.995490000000     0.082420000000     0.462590000000     0          
O        O      0.537805000000     0.127530000000     0.428616666667     0          
O        O      0.590790000000     0.168655000000     0.451883333333     0          
T        Si     0.599375000000     0.006000000000     0.755320000000     0          
T        Si     0.630390000000     0.071860000000     0.789723333333     0          
T        Si     0.687395000000     0.129185000000     0.789576666667     0          
T        Si     0.528680000000     0.028680000000     0.712470000000     0          
T        Si     0.558490000000     0.001965000000     0.833333333333     0          
O        O      0.500000000000     0.000000000000     0.727503333333     0          
O        O      0.528630000000     0.028630000000     0.666666666667     0          
O        O      0.568055000000     0.018595000000     0.727070000000     0          
O        O      0.619545000000     0.472090000000     0.737356666667     0          
O        O      0.582420000000     0.495490000000     0.795923333333     0          
O        O      0.526565000000     0.473435000000     0.833333333333     0          
O        O      0.541340000000     0.041340000000     0.833333333333     0          
O        O      0.627530000000     0.037805000000     0.761950000000     0          
O        O      0.599765000000     0.099765000000     0.777930000000     0          
O        O      0.624855000000     0.059690000000     0.833333333333     0          
O        O      0.668655000000     0.090790000000     0.785216666667     0          
O        O      0.659900000000     0.159900000000     0.776910000000     0          
O        O      0.698880000000     0.135160000000     0.833333333333     0          
T        Si     0.744000000000     0.349375000000     0.921986666667     0          
T        Si     0.678140000000     0.380390000000     0.956390000000     0          
T        Si     0.620815000000     0.437395000000     0.956243333333     0          
T        Si     0.721320000000     0.278680000000     0.879136666667     0          
T        Si     0.748035000000     0.308490000000     0.666666666667     0          
O        O      0.750000000000     0.250000000000     0.894170000000     0          
O        O      0.721370000000     0.278630000000     0.833333333333     0          
O        O      0.731405000000     0.318055000000     0.893736666667     0          
O        O      0.777910000000     0.369545000000     0.904023333333     0          
O        O      0.754510000000     0.332420000000     0.962590000000     0          
O        O      0.776565000000     0.276565000000     0.666666666667     0          
O        O      0.708660000000     0.291340000000     0.666666666667     0          
O        O      0.712195000000     0.377530000000     0.928616666667     0          
O        O      0.650235000000     0.349765000000     0.944596666667     0          
O        O      0.690310000000     0.374855000000     0.666666666667     0          
O        O      0.659210000000     0.418655000000     0.951883333333     0          
O        O      0.590100000000     0.409900000000     0.943576666667     0          
O        O      0.614840000000     0.448880000000     0.666666666667     0          
T        Si     0.900625000000     0.494000000000     0.755320000000     0          
T        Si     0.869610000000     0.428140000000     0.789723333333     0          
T        Si     0.812605000000     0.370815000000     0.789576666667     0          
T        Si     0.971320000000     0.471320000000     0.712470000000     0          
T        Si     0.941510000000     0.498035000000     0.833333333333     0          
O        O      0.971370000000     0.471370000000     0.666666666667     0          
O        O      0.931945000000     0.481405000000     0.727070000000     0          
O        O      0.880455000000     0.027910000000     0.737356666667     0          
O        O      0.917580000000     0.004510000000     0.795923333333     0          
O        O      0.973435000000     0.026565000000     0.833333333333     0          
O        O      0.958660000000     0.458660000000     0.833333333333     0          
O        O      0.872470000000     0.462195000000     0.761950000000     0          
O        O      0.900235000000     0.400235000000     0.777930000000     0          
O        O      0.875145000000     0.440310000000     0.833333333333     0          
O        O      0.831345000000     0.409210000000     0.785216666667     0          
O        O      0.840100000000     0.340100000000     0.776910000000     0          
O        O      0.801120000000     0.364840000000     0.833333333333     0          
T        Si     0.756000000000     0.150625000000     0.921986666667     0          
T        Si     0.821860000000     0.119610000000     0.956390000000     0          
T        Si     0.879185000000     0.062605000000     0.956243333333     0          
T        Si     0.778680000000     0.221320000000     0.879136666667     0          
T        Si     0.751965000000     0.191510000000     0.666666666667     0          
O        O      0.778630000000     0.221370000000     0.833333333333     0          
O        O      0.768595000000     0.181945000000     0.893736666667     0          
O        O      0.722090000000     0.130455000000     0.904023333333     0          
O        O      0.745490000000     0.167580000000     0.962590000000     0          
O        O      0.723435000000     0.223435000000     0.666666666667     0          
O        O      0.791340000000     0.208660000000     0.666666666667     0          
O        O      0.787805000000     0.122470000000     0.928616666667     0          
O        O      0.849765000000     0.150235000000     0.944596666667     0          
O        O      0.809690000000     0.125145000000     0.666666666667     0          
O        O      0.840790000000     0.081345000000     0.951883333333     0          
O        O      0.909900000000     0.090100000000     0.943576666667     0          
O        O      0.885160000000     0.051120000000     0.666666666667     0          
T        Si     0.849375000000     0.244000000000     0.744680000000     0          
T        Si     0.880390000000     0.178140000000     0.710276666667     0          
T        Si     0.937395000000     0.120815000000     0.710423333333     0          
T        Si     0.778680000000     0.221320000000     0.787530000000     0          
T        Si     0.808490000000     0.248035000000     0.666666666667     0          
O        O      0.750000000000     0.250000000000     0.772496666667     0          
O        O      0.818055000000     0.231405000000     0.772930000000     0          
O        O      0.869545000000     0.277910000000     0.762643333333     0          
O        O      0.832420000000     0.254510000000     0.704076666667     0          
O        O      0.877530000000     0.212195000000     0.738050000000     0          
O        O      0.849765000000     0.150235000000     0.722070000000     0          
O        O      0.874855000000     0.190310000000     0.666666666667     0          
O        O      0.918655000000     0.159210000000     0.714783333333     0          
O        O      0.909900000000     0.090100000000     0.723090000000     0          
O        O      0.948880000000     0.114840000000     0.666666666667     0          
T        Si     0.506000000000     0.099375000000     0.911346666667     0          
T        Si     0.571860000000     0.130390000000     0.876943333333     0          
T        Si     0.629185000000     0.187395000000     0.877090000000     0          
T        Si     0.528680000000     0.028680000000     0.954196666667     0          
T        Si     0.501965000000     0.058490000000     0.833333333333     0          
O        O      0.500000000000     0.000000000000     0.939163333333     0          
O        O      0.518595000000     0.068055000000     0.939596666667     0          
O        O      0.972090000000     0.119545000000     0.929310000000     0          
O        O      0.995490000000     0.082420000000     0.870743333333     0          
O        O      0.537805000000     0.127530000000     0.904716666667     0          
O        O      0.599765000000     0.099765000000     0.888736666667     0          
O        O      0.559690000000     0.124855000000     0.833333333333     0          
O        O      0.590790000000     0.168655000000     0.881450000000     0          
O        O      0.659900000000     0.159900000000     0.889756666667     0          
O        O      0.635160000000     0.198880000000     0.833333333333     0          
T        Si     0.650625000000     0.256000000000     0.744680000000     0          
T        Si     0.619610000000     0.321860000000     0.710276666667     0          
T        Si     0.562605000000     0.379185000000     0.710423333333     0          
T        Si     0.721320000000     0.278680000000     0.787530000000     0          
T        Si     0.691510000000     0.251965000000     0.666666666667     0          
O        O      0.681945000000     0.268595000000     0.772930000000     0          
O        O      0.630455000000     0.222090000000     0.762643333333     0          
O        O      0.667580000000     0.245490000000     0.704076666667     0          
O        O      0.622470000000     0.287805000000     0.738050000000     0          
O        O      0.650235000000     0.349765000000     0.722070000000     0          
O        O      0.625145000000     0.309690000000     0.666666666667     0          
O        O      0.581345000000     0.340790000000     0.714783333333     0          
O        O      0.590100000000     0.409900000000     0.723090000000     0          
O        O      0.551120000000     0.385160000000     0.666666666667     0          
T        Si     0.994000000000     0.400625000000     0.911346666667     0          
T        Si     0.928140000000     0.369610000000     0.876943333333     0          
T        Si     0.870815000000     0.312605000000     0.877090000000     0          
T        Si     0.971320000000     0.471320000000     0.954196666667     0          
T        Si     0.998035000000     0.441510000000     0.833333333333     0          
O        O      0.981405000000     0.431945000000     0.939596666667     0          
O        O      0.527910000000     0.380455000000     0.929310000000     0          
O        O      0.504510000000     0.417580000000     0.870743333333     0          
O        O      0.962195000000     0.372470000000     0.904716666667     0          
O        O      0.900235000000     0.400235000000     0.888736666667     0          
O        O      0.940310000000     0.375145000000     0.833333333333     0          
O        O      0.909210000000     0.331345000000     0.881450000000     0          
O        O      0.840100000000     0.340100000000     0.889756666667     0          
O        O      0.864840000000     0.301120000000     0.833333333333     0          
T        Si     0.900625000000     0.494000000000     0.911346666667     0          
T        Si     0.869610000000     0.428140000000     0.876943333333     0          
T        Si     0.812605000000     0.370815000000     0.877090000000     0          
O        O      0.931945000000     0.481405000000     0.939596666667     0          
O        O      0.880455000000     0.027910000000     0.929310000000     0          
O        O      0.917580000000     0.004510000000     0.870743333333     0          
O        O      0.872470000000     0.462195000000     0.904716666667     0          
O        O      0.831345000000     0.409210000000     0.881450000000     0          
T        Si     0.756000000000     0.150625000000     0.744680000000     0          
T        Si     0.821860000000     0.119610000000     0.710276666667     0          
T        Si     0.879185000000     0.062605000000     0.710423333333     0          
O        O      0.768595000000     0.181945000000     0.772930000000     0          
O        O      0.722090000000     0.130455000000     0.762643333333     0          
O        O      0.745490000000     0.167580000000     0.704076666667     0          
O        O      0.787805000000     0.122470000000     0.738050000000     0          
O        O      0.840790000000     0.081345000000     0.714783333333     0          
T        Si     0.599375000000     0.006000000000     0.911346666667     0          
T        Si     0.630390000000     0.071860000000     0.876943333333     0          
T        Si     0.687395000000     0.129185000000     0.877090000000     0          
O        O      0.568055000000     0.018595000000     0.939596666667     0          
O        O      0.619545000000     0.472090000000     0.929310000000     0          
O        O      0.582420000000     0.495490000000     0.870743333333     0          
O        O      0.627530000000     0.037805000000     0.904716666667     0          
O        O      0.668655000000     0.090790000000     0.881450000000     0          
T        Si     0.744000000000     0.349375000000     0.744680000000     0          
T        Si     0.678140000000     0.380390000000     0.710276666667     0          
T        Si     0.620815000000     0.437395000000     0.710423333333     0          
O        O      0.731405000000     0.318055000000     0.772930000000     0          
O        O      0.777910000000     0.369545000000     0.762643333333     0          
O        O      0.754510000000     0.332420000000     0.704076666667     0          
O        O      0.712195000000     0.377530000000     0.738050000000     0          
O        O      0.659210000000     0.418655000000     0.714783333333     0          
T        Si     0.650625000000     0.256000000000     0.921986666667     0          
T        Si     0.619610000000     0.321860000000     0.956390000000     0          
T        Si     0.562605000000     0.379185000000     0.956243333333     0          
O        O      0.681945000000     0.268595000000     0.893736666667     0          
O        O      0.630455000000     0.222090000000     0.904023333333     0          
O        O      0.667580000000     0.245490000000     0.962590000000     0          
O        O      0.622470000000     0.287805000000     0.928616666667     0          
O        O      0.581345000000     0.340790000000     0.951883333333     0          
T        Si     0.994000000000     0.400625000000     0.755320000000     0          
T        Si     0.928140000000     0.369610000000     0.789723333333     0          
T        Si     0.870815000000     0.312605000000     0.789576666667     0          
O        O      0.981405000000     0.431945000000     0.727070000000     0          
O        O      0.527910000000     0.380455000000     0.737356666667     0          
O        O      0.504510000000     0.417580000000     0.795923333333     0          
O        O      0.962195000000     0.372470000000     0.761950000000     0          
O        O      0.909210000000     0.331345000000     0.785216666667     0          
T        Si     0.849375000000     0.244000000000     0.921986666667     0          
T        Si     0.880390000000     0.178140000000     0.956390000000     0          
T        Si     0.937395000000     0.120815000000     0.956243333333     0          
O        O      0.818055000000     0.231405000000     0.893736666667     0          
O        O      0.869545000000     0.277910000000     0.904023333333     0          
O        O      0.832420000000     0.254510000000     0.962590000000     0          
O        O      0.877530000000     0.212195000000     0.928616666667     0          
O        O      0.918655000000     0.159210000000     0.951883333333     0          
T        Si     0.506000000000     0.099375000000     0.755320000000     0          
T        Si     0.571860000000     0.130390000000     0.789723333333     0          
T        Si     0.629185000000     0.187395000000     0.789576666667     0          
O        O      0.518595000000     0.068055000000     0.727070000000     0          
O        O      0.972090000000     0.119545000000     0.737356666667     0          
O        O      0.995490000000     0.082420000000     0.795923333333     0          
O        O      0.537805000000     0.127530000000     0.761950000000     0          
O        O      0.590790000000     0.168655000000     0.785216666667     0          
T        Si     0.599375000000     0.506000000000     0.088653333333     0          
T        Si     0.630390000000     0.571860000000     0.123056666667     0          
T        Si     0.687395000000     0.629185000000     0.122910000000     0          
T        Si     0.528680000000     0.528680000000     0.045803333333     0          
T        Si     0.558490000000     0.501965000000     0.166666666667     0          
O        O      0.500000000000     0.500000000000     0.060836666667     0          
O        O      0.528630000000     0.528630000000     0.000000000000     0          
O        O      0.568055000000     0.518595000000     0.060403333333     0          
O        O      0.619545000000     0.972090000000     0.070690000000     0          
O        O      0.582420000000     0.995490000000     0.129256666667     0          
O        O      0.526565000000     0.973435000000     0.166666666667     0          
O        O      0.541340000000     0.541340000000     0.166666666667     0          
O        O      0.627530000000     0.537805000000     0.095283333333     0          
O        O      0.599765000000     0.599765000000     0.111263333333     0          
O        O      0.624855000000     0.559690000000     0.166666666667     0          
O        O      0.668655000000     0.590790000000     0.118550000000     0          
O        O      0.659900000000     0.659900000000     0.110243333333     0          
O        O      0.698880000000     0.635160000000     0.166666666667     0          
T        Si     0.744000000000     0.849375000000     0.255320000000     0          
T        Si     0.678140000000     0.880390000000     0.289723333333     0          
T        Si     0.620815000000     0.937395000000     0.289576666667     0          
T        Si     0.721320000000     0.778680000000     0.212470000000     0          
T        Si     0.748035000000     0.808490000000     0.000000000000     0          
O        O      0.750000000000     0.750000000000     0.227503333333     0          
O        O      0.721370000000     0.778630000000     0.166666666667     0          
O        O      0.731405000000     0.818055000000     0.227070000000     0          
O        O      0.777910000000     0.869545000000     0.237356666667     0          
O        O      0.754510000000     0.832420000000     0.295923333333     0          
O        O      0.776565000000     0.776565000000     0.000000000000     0          
O        O      0.708660000000     0.791340000000     0.000000000000     0          
O        O      0.712195000000     0.877530000000     0.261950000000     0          
O        O      0.650235000000     0.849765000000     0.277930000000     0          
O        O      0.690310000000     0.874855000000     0.000000000000     0          
O        O      0.659210000000     0.918655000000     0.285216666667     0          
O        O      0.590100000000     0.909900000000     0.276910000000     0          
O        O      0.614840000000     0.948880000000     0.000000000000     0          
T        Si     0.900625000000     0.994000000000     0.088653333333     0          
T        Si     0.869610000000     0.928140000000     0.123056666667     0          
T        Si     0.812605000000     0.870815000000     0.122910000000     0          
T        Si     0.971320000000     0.971320000000     0.045803333333     0          
T        Si     0.941510000000     0.998035000000     0.166666666667     0          
O        O      0.971370000000     0.971370000000     0.000000000000     0          
O        O      0.931945000000     0.981405000000     0.060403333333     0          
O        O      0.880455000000     0.527910000000     0.070690000000     0          
O        O      0.917580000000     0.504510000000     0.129256666667     0          
O        O      0.973435000000     0.526565000000     0.166666666667     0          
O        O      0.958660000000     0.958660000000     0.166666666667     0          
O        O      0.872470000000     0.962195000000     0.095283333333     0          
O        O      0.900235000000     0.900235000000     0.111263333333     0          
O        O      0.875145000000     0.940310000000     0.166666666667     0          
O        O      0.831345000000     0.909210000000     0.118550000000     0          
O        O      0.840100000000     0.840100000000     0.110243333333     0          
O        O      0.801120000000     0.864840000000     0.166666666667     0          
T        Si     0.756000000000     0.650625000000     0.255320000000     0          
T        Si     0.821860000000     0.619610000000     0.289723333333     0          
T        Si     0.879185000000     0.562605000000     0.289576666667     0          
T        Si     0.778680000000     0.721320000000     0.212470000000     0          
T        Si     0.751965000000     0.691510000000     0.000000000000     0          
O        O      0.778630000000     0.721370000000     0.166666666667     0          
O        O      0.768595000000     0.681945000000     0.227070000000     0          
O        O      0.722090000000     0.630455000000     0.237356666667     0          
O        O      0.745490000000     0.667580000000     0.295923333333     0          
O        O      0.723435000000     0.723435000000     0.000000000000     0          
O        O      0.791340000000     0.708660000000     0.000000000000     0          
O        O      0.787805000000     0.622470000000     0.261950000000     0          
O        O      0.849765000000     0.650235000000     0.277930000000     0          
O        O      0.809690000000     0.625145000000     0.000000000000     0          
O        O      0.840790000000     0.581345000000     0.285216666667     0          
O        O      0.909900000000     0.590100000000     0.276910000000     0          
O        O      0.885160000000     0.551120000000     0.000000000000     0          
T        Si     0.849375000000     0.744000000000     0.078013333333     0          
T        Si     0.880390000000     0.678140000000     0.043610000000     0          
T        Si     0.937395000000     0.620815000000     0.043756666667     0          
T        Si     0.778680000000     0.721320000000     0.120863333333     0          
T        Si     0.808490000000     0.748035000000     0.000000000000     0          
O        O      0.750000000000     0.750000000000     0.105830000000     0          
O        O      0.818055000000     0.731405000000     0.106263333333     0          
O        O      0.869545000000     0.777910000000     0.095976666667     0          
O        O      0.832420000000     0.754510000000     0.037410000000     0          
O        O      0.877530000000     0.712195000000     0.071383333333     0          
O        O      0.849765000000     0.650235000000     0.055403333333     0          
O        O      0.874855000000     0.690310000000     0.000000000000     0          
O        O      0.918655000000     0.659210000000     0.048116666667     0          
O        O      0.909900000000     0.590100000000     0.056423333333     0          
O        O      0.948880000000     0.614840000000     0.000000000000     0          
T        Si     0.506000000000     0.599375000000     0.244680000000     0          
T        Si     0.571860000000     0.630390000000     0.210276666667     0          
T        Si     0.629185000000     0.687395000000     0.210423333333     0          
T        Si     0.528680000000     0.528680000000     0.287530000000     0          
T        Si     0.501965000000     0.558490000000     0.166666666667     0          
O        O      0.500000000000     0.500000000000     0.272496666667     0          
O        O      0.518595000000     0.568055000000     0.272930000000     0          
O        O      0.972090000000     0.619545000000     0.262643333333     0          
O        O      0.995490000000     0.582420000000     0.204076666667     0          
O        O      0.537805000000     0.627530000000     0.238050000000     0          
O        O      0.599765000000     0.599765000000     0.222070000000     0          
O        O      0.559690000000     0.624855000000     0.166666666667     0          
O        O      0.590790000000     0.668655000000     0.214783333333     0          
O        O      0.659900000000     0.659900000000     0.223090000000     0          
O        O      0.635160000000     0.698880000000     0.166666666667     0          
T        Si     0.650625000000     0.756000000000     0.078013333333     0          
T        Si     0.619610000000     0.821860000000     0.043610000000     0          
T        Si     0.562605000000     0.879185000000     0.043756666667     0          
T        Si     0.721320000000     0.778680000000     0.120863333333     0          
T        Si     0.691510000000     0.751965000000     0.000000000000     0          
O        O      0.681945000000     0.768595000000     0.106263333333     0          
O        O      0.630455000000     0.722090000000     0.095976666667     0          
O        O      0.667580000000     0.745490000000     0.037410000000     0          
O        O      0.622470000000     0.787805000000     0.071383333333     0          
O        O      0.650235000000     0.849765000000     0.055403333333     0          
O        O      0.625145000000     0.809690000000     0.000000000000     0          
O        O      0.581345000000     0.840790000000     0.048116666667     0          
O        O      0.590100000000     0.909900000000     0.056423333333     0          
O        O      0.551120000000     0.885160000000     0.000000000000     0          
T        Si     0.994000000000     0.900625000000     0.244680000000     0          
T        Si     0.928140000000     0.869610000000     0.210276666667     0          
T        Si     0.870815000000     0.812605000000     0.210423333333     0          
T        Si     0.971320000000     0.971320000000     0.287530000000     0          
T        Si     0.998035000000     0.941510000000     0.166666666667     0          
O        O      0.981405000000     0.931945000000     0.272930000000     0          
O        O      0.527910000000     0.880455000000     0.262643333333     0          
O        O      0.504510000000     0.917580000000     0.204076666667     0          
O        O      0.962195000000     0.872470000000     0.238050000000     0          
O        O      0.900235000000     0.900235000000     0.222070000000     0          
O        O      0.940310000000     0.875145000000     0.166666666667     0          
O        O      0.909210000000     0.831345000000     0.214783333333     0          
O        O      0.840100000000     0.840100000000     0.223090000000     0          
O        O      0.864840000000     0.801120000000     0.166666666667     0          
T        Si     0.900625000000     0.994000000000     0.244680000000     0          
T        Si     0.869610000000     0.928140000000     0.210276666667     0          
T        Si     0.812605000000     0.870815000000     0.210423333333     0          
O        O      0.931945000000     0.981405000000     0.272930000000     0          
O        O      0.880455000000     0.527910000000     0.262643333333     0          
O        O      0.917580000000     0.504510000000     0.204076666667     0          
O        O      0.872470000000     0.962195000000     0.238050000000     0          
O        O      0.831345000000     0.909210000000     0.214783333333     0          
T        Si     0.756000000000     0.650625000000     0.078013333333     0          
T        Si     0.821860000000     0.619610000000     0.043610000000     0          
T        Si     0.879185000000     0.562605000000     0.043756666667     0          
O        O      0.768595000000     0.681945000000     0.106263333333     0          
O        O      0.722090000000     0.630455000000     0.095976666667     0          
O        O      0.745490000000     0.667580000000     0.037410000000     0          
O        O      0.787805000000     0.622470000000     0.071383333333     0          
O        O      0.840790000000     0.581345000000     0.048116666667     0          
T        Si     0.599375000000     0.506000000000     0.244680000000     0          
T        Si     0.630390000000     0.571860000000     0.210276666667     0          
T        Si     0.687395000000     0.629185000000     0.210423333333     0          
O        O      0.568055000000     0.518595000000     0.272930000000     0          
O        O      0.619545000000     0.972090000000     0.262643333333     0          
O        O      0.582420000000     0.995490000000     0.204076666667     0          
O        O      0.627530000000     0.537805000000     0.238050000000     0          
O        O      0.668655000000     0.590790000000     0.214783333333     0          
T        Si     0.744000000000     0.849375000000     0.078013333333     0          
T        Si     0.678140000000     0.880390000000     0.043610000000     0          
T        Si     0.620815000000     0.937395000000     0.043756666667     0          
O        O      0.731405000000     0.818055000000     0.106263333333     0          
O        O      0.777910000000     0.869545000000     0.095976666667     0          
O        O      0.754510000000     0.832420000000     0.037410000000     0          
O        O      0.712195000000     0.877530000000     0.071383333333     0          
O        O      0.659210000000     0.918655000000     0.048116666667     0          
T        Si     0.650625000000     0.756000000000     0.255320000000     0          
T        Si     0.619610000000     0.821860000000     0.289723333333     0          
T        Si     0.562605000000     0.879185000000     0.289576666667     0          
O        O      0.681945000000     0.768595000000     0.227070000000     0          
O        O      0.630455000000     0.722090000000     0.237356666667     0          
O        O      0.667580000000     0.745490000000     0.295923333333     0          
O        O      0.622470000000     0.787805000000     0.261950000000     0          
O        O      0.581345000000     0.840790000000     0.285216666667     0          
T        Si     0.994000000000     0.900625000000     0.088653333333     0          
T        Si     0.928140000000     0.869610000000     0.123056666667     0          
T        Si     0.870815000000     0.812605000000     0.122910000000     0          
O        O      0.981405000000     0.931945000000     0.060403333333     0          
O        O      0.527910000000     0.880455000000     0.070690000000     0          
O        O      0.504510000000     0.917580000000     0.129256666667     0          
O        O      0.962195000000     0.872470000000     0.095283333333     0          
O        O      0.909210000000     0.831345000000     0.118550000000     0          
T        Si     0.849375000000     0.744000000000     0.255320000000     0          
T        Si     0.880390000000     0.678140000000     0.289723333333     0          
T        Si     0.937395000000     0.620815000000     0.289576666667     0          
O        O      0.818055000000     0.731405000000     0.227070000000     0          
O        O      0.869545000000     0.777910000000     0.237356666667     0          
O        O      0.832420000000     0.754510000000     0.295923333333     0          
O        O      0.877530000000     0.712195000000     0.261950000000     0          
O        O      0.918655000000     0.659210000000     0.285216666667     0          
T        Si     0.506000000000     0.599375000000     0.088653333333     0          
T        Si     0.571860000000     0.630390000000     0.123056666667     0          
T        Si     0.629185000000     0.687395000000     0.122910000000     0          
O        O      0.518595000000     0.568055000000     0.060403333333     0          
O        O      0.972090000000     0.619545000000     0.070690000000     0          
O        O      0.995490000000     0.582420000000     0.129256666667     0          
O        O      0.537805000000     0.627530000000     0.095283333333     0          
O        O      0.590790000000     0.668655000000     0.118550000000     0          
T        Si     0.599375000000     0.506000000000     0.421986666667     0          
T        Si     0.630390000000     0.571860000000     0.456390000000     0          
T        Si     0.687395000000     0.629185000000     0.456243333333     0          
T        Si     0.528680000000     0.528680000000     0.379136666667     0          
T        Si     0.558490000000     0.501965000000     0.500000000000     0          
O        O      0.500000000000     0.500000000000     0.394170000000     0          
O        O      0.528630000000     0.528630000000     0.333333333333     0          
O        O      0.568055000000     0.518595000000     0.393736666667     0          
O        O      0.619545000000     0.972090000000     0.404023333333     0          
O        O      0.582420000000     0.995490000000     0.462590000000     0          
O        O      0.526565000000     0.973435000000     0.500000000000     0          
O        O      0.541340000000     0.541340000000     0.500000000000     0          
O        O      0.627530000000     0.537805000000     0.428616666667     0          
O        O      0.599765000000     0.599765000000     0.444596666667     0          
O        O      0.624855000000     0.559690000000     0.500000000000     0          
O        O      0.668655000000     0.590790000000     0.451883333333     0          
O        O      0.659900000000     0.659900000000     0.443576666667     0          
O        O      0.698880000000     0.635160000000     0.500000000000     0          
T        Si     0.744000000000     0.849375000000     0.588653333333     0          
T        Si     0.678140000000     0.880390000000     0.623056666667     0          
T        Si     0.620815000000     0.937395000000     0.622910000000     0          
T        Si     0.721320000000     0.778680000000     0.545803333333     0          
T        Si     0.748035000000     0.808490000000     0.333333333333     0          
O        O      0.750000000000     0.750000000000     0.560836666667     0          
O        O      0.721370000000     0.778630000000     0.500000000000     0          
O        O      0.731405000000     0.818055000000     0.560403333333     0          
O        O      0.777910000000     0.869545000000     0.570690000000     0          
O        O      0.754510000000     0.832420000000     0.629256666667     0          
O        O      0.776565000000     0.776565000000     0.333333333333     0          
O        O      0.708660000000     0.791340000000     0.333333333333     0          
O        O      0.712195000000     0.877530000000     0.595283333333     0          
O        O      0.650235000000     0.849765000000     0.611263333333     0          
O        O      0.690310000000     0.874855000000     0.333333333333     0          
O        O      0.659210000000     0.918655000000     0.618550000000     0          
O        O      0.590100000000     0.909900000000     0.610243333333     0          
O        O      0.614840000000     0.948880000000     0.333333333333     0          
T        Si     0.900625000000     0.994000000000     0.421986666667     0          
T        Si     0.869610000000     0.928140000000     0.456390000000     0          
T        Si     0.812605000000     0.870815000000     0.456243333333     0          
T        Si     0.971320000000     0.971320000000     0.379136666667     0          
T        Si     0.941510000000     0.998035000000     0.500000000000     0          
O        O      0.971370000000     0.971370000000     0.333333333333     0          
O        O      0.931945000000     0.981405000000     0.393736666667     0          
O        O      0.880455000000     0.527910000000     0.404023333333     0          
O        O      0.917580000000     0.504510000000     0.462590000000     0          
O        O      0.973435000000     0.526565000000     0.500000000000     0          
O        O      0.958660000000     0.958660000000     0.500000000000     0          
O        O      0.872470000000     0.962195000000     0.428616666667     0          
O        O      0.900235000000     0.900235000000     0.444596666667     0          
O        O      0.875145000000     0.940310000000     0.500000000000     0          
O        O      0.831345000000     0.909210000000     0.451883333333     0          
O        O      0.840100000000     0.840100000000     0.443576666667     0          
O        O      0.801120000000     0.864840000000     0.500000000000     0          
T        Si     0.756000000000     0.650625000000     0.588653333333     0          
T        Si     0.821860000000     0.619610000000     0.623056666667     0          
T        Si     0.879185000000     0.562605000000     0.622910000000     0          
T        Si     0.778680000000     0.721320000000     0.545803333333     0          
T        Si     0.751965000000     0.691510000000     0.333333333333     0          
O        O      0.778630000000     0.721370000000     0.500000000000     0          
O        O      0.768595000000     0.681945000000     0.560403333333     0          
O        O      0.722090000000     0.630455000000     0.570690000000     0          
O        O      0.745490000000     0.667580000000     0.629256666667     0          
O        O      0.723435000000     0.723435000000     0.333333333333     0          
O        O      0.791340000000     0.708660000000     0.333333333333     0          
O        O      0.787805000000     0.622470000000     0.595283333333     0          
O        O      0.849765000000     0.650235000000     0.611263333333     0          
O        O      0.809690000000     0.625145000000     0.333333333333     0          
O        O      0.840790000000     0.581345000000     0.618550000000     0          
O        O      0.909900000000     0.590100000000     0.610243333333     0          
O        O      0.885160000000     0.551120000000     0.333333333333     0          
T        Si     0.849375000000     0.744000000000     0.411346666667     0          
T        Si     0.880390000000     0.678140000000     0.376943333333     0          
T        Si     0.937395000000     0.620815000000     0.377090000000     0          
T        Si     0.778680000000     0.721320000000     0.454196666667     0          
T        Si     0.808490000000     0.748035000000     0.333333333333     0          
O        O      0.750000000000     0.750000000000     0.439163333333     0          
O        O      0.818055000000     0.731405000000     0.439596666667     0          
O        O      0.869545000000     0.777910000000     0.429310000000     0          
O        O      0.832420000000     0.754510000000     0.370743333333     0          
O        O      0.877530000000     0.712195000000     0.404716666667     0          
O        O      0.849765000000     0.650235000000     0.388736666667     0          
O        O      0.874855000000     0.690310000000     0.333333333333     0          
O        O      0.918655000000     0.659210000000     0.381450000000     0          
O        O      0.909900000000     0.590100000000     0.389756666667     0          
O        O      0.948880000000     0.614840000000     0.333333333333     0          
T        Si     0.506000000000     0.599375000000     0.578013333333     0          
T        Si     0.571860000000     0.630390000000     0.543610000000     0          
T        Si     0.629185000000     0.687395000000     0.543756666667     0          
T        Si     0.528680000000     0.528680000000     0.620863333333     0          
T        Si     0.501965000000     0.558490000000     0.500000000000     0          
O        O      0.500000000000     0.500000000000     0.605830000000     0          
O        O      0.518595000000     0.568055000000     0.606263333333     0          
O        O      0.972090000000     0.619545000000     0.595976666667     0          
O        O      0.995490000000     0.582420000000     0.537410000000     0          
O        O      0.537805000000     0.627530000000     0.571383333333     0          
O        O      0.599765000000     0.599765000000     0.555403333333     0          
O        O      0.559690000000     0.624855000000     0.500000000000     0          
O        O      0.590790000000     0.668655000000     0.548116666667     0          
O        O      0.659900000000     0.659900000000     0.556423333333     0          
O        O      0.635160000000     0.698880000000     0.500000000000     0          
T        Si     0.650625000000     0.756000000000     0.411346666667     0          
T        Si     0.619610000000     0.821860000000     0.376943333333     0          
T        Si     0.562605000000     0.879185000000     0.377090000000     0          
T        Si     0.721320000000     0.778680000000     0.454196666667     0          
T        Si     0.691510000000     0.751965000000     0.333333333333     0          
O        O      0.681945000000     0.768595000000     0.439596666667     0          
O        O      0.630455000000     0.722090000000     0.429310000000     0          
O        O      0.667580000000     0.745490000000     0.370743333333     0          
O        O      0.622470000000     0.787805000000     0.404716666667     0          
O        O      0.650235000000     0.849765000000     0.388736666667     0          
O        O      0.625145000000     0.809690000000     0.333333333333     0          
O        O      0.581345000000     0.840790000000     0.381450000000     0          
O        O      0.590100000000     0.909900000000     0.389756666667     0          
O        O      0.551120000000     0.885160000000     0.333333333333     0          
T        Si     0.994000000000     0.900625000000     0.578013333333     0          
T        Si     0.928140000000     0.869610000000     0.543610000000     0          
T        Si     0.870815000000     0.812605000000     0.543756666667     0          
T        Si     0.971320000000     0.971320000000     0.620863333333     0          
T        Si     0.998035000000     0.941510000000     0.500000000000     0          
O        O      0.981405000000     0.931945000000     0.606263333333     0          
O        O      0.527910000000     0.880455000000     0.595976666667     0          
O        O      0.504510000000     0.917580000000     0.537410000000     0          
O        O      0.962195000000     0.872470000000     0.571383333333     0          
O        O      0.900235000000     0.900235000000     0.555403333333     0          
O        O      0.940310000000     0.875145000000     0.500000000000     0          
O        O      0.909210000000     0.831345000000     0.548116666667     0          
O        O      0.840100000000     0.840100000000     0.556423333333     0          
O        O      0.864840000000     0.801120000000     0.500000000000     0          
T        Si     0.900625000000     0.994000000000     0.578013333333     0          
T        Si     0.869610000000     0.928140000000     0.543610000000     0          
T        Si     0.812605000000     0.870815000000     0.543756666667     0          
O        O      0.931945000000     0.981405000000     0.606263333333     0          
O        O      0.880455000000     0.527910000000     0.595976666667     0          
O        O      0.917580000000     0.504510000000     0.537410000000     0          
O        O      0.872470000000     0.962195000000     0.571383333333     0          
O        O      0.831345000000     0.909210000000     0.548116666667     0          
T        Si     0.756000000000     0.650625000000     0.411346666667     0          
T        Si     0.821860000000     0.619610000000     0.376943333333     0          
T        Si     0.879185000000     0.562605000000     0.377090000000     0          
O        O      0.768595000000     0.681945000000     0.439596666667     0          
O        O      0.722090000000     0.630455000000     0.429310000000     0          
O        O      0.745490000000     0.667580000000     0.370743333333     0          
O        O      0.787805000000     0.622470000000     0.404716666667     0          
O        O      0.840790000000     0.581345000000     0.381450000000     0          
T        Si     0.599375000000     0.506000000000     0.578013333333     0          
T        Si     0.630390000000     0.571860000000     0.543610000000     0          
T        Si     0.687395000000     0.629185000000     0.543756666667     0          
O        O      0.568055000000     0.518595000000     0.606263333333     0          
O        O      0.619545000000     0.972090000000     0.595976666667     0          
O        O      0.582420000000     0.995490000000     0.537410000000     0          
O        O      0.627530000000     0.537805000000     0.571383333333     0          
O        O      0.668655000000     0.590790000000     0.548116666667     0          
T        Si     0.744000000000     0.849375000000     0.411346666667     0          
T        Si     0.678140000000     0.880390000000     0.376943333333     0          
T        Si     0.620815000000     0.937395000000     0.377090000000     0          
O        O      0.731405000000     0.818055000000     0.439596666667     0          
O        O      0.777910000000     0.869545000000     0.429310000000     0          
O        O      0.754510000000     0.832420000000     0.370743333333     0          
O        O      0.712195000000     0.877530000000     0.404716666667     0          
O        O      0.659210000000     0.918655000000     0.381450000000     0          
T        Si     0.650625000000     0.756000000000     0.588653333333     0          
T        Si     0.619610000000     0.821860000000     0.623056666667     0          
T        Si     0.562605000000     0.879185000000     0.622910000000     0          
O        O      0.681945000000     0.768595000000     0.560403333333     0          
O        O      0.630455000000     0.722090000000     0.570690000000     0          
O        O      0.667580000000     0.745490000000     0.629256666667     0          
O        O      0.622470000000     0.787805000000     0.595283333333     0          
O        O      0.581345000000     0.840790000000     0.618550000000     0          
T        Si     0.994000000000     0.900625000000     0.421986666667     0          
T        Si     0.928140000000     0.869610000000     0.456390000000     0          
T        Si     0.870815000000     0.812605000000     0.456243333333     0          
O        O      0.981405000000     0.931945000000     0.393736666667     0          
O        O      0.527910000000     0.880455000000     0.404023333333     0          
O        O      0.504510000000     0.917580000000     0.462590000000     0          
O        O      0.962195000000     0.872470000000     0.428616666667     0          
O        O      0.909210000000     0.831345000000     0.451883333333     0          
T        Si     0.849375000000     0.744000000000     0.588653333333     0          
T        Si     0.880390000000     0.678140000000     0.623056666667     0          
T        Si     0.937395000000     0.620815000000     0.622910000000     0          
O        O      0.818055000000     0.731405000000     0.560403333333     0          
O        O      0.869545000000     0.777910000000     0.570690000000     0          
O        O      0.832420000000     0.754510000000     0.629256666667     0          
O        O      0.877530000000     0.712195000000     0.595283333333     0          
O        O      0.918655000000     0.659210000000     0.618550000000     0          
T        Si     0.506000000000     0.599375000000     0.421986666667     0          
T        Si     0.571860000000     0.630390000000     0.456390000000     0          
T        Si     0.629185000000     0.687395000000     0.456243333333     0          
O        O      0.518595000000     0.568055000000     0.393736666667     0          
O        O      0.972090000000     0.619545000000     0.404023333333     0          
O        O      0.995490000000     0.582420000000     0.462590000000     0          
O        O      0.537805000000     0.627530000000     0.428616666667     0          
O        O      0.590790000000     0.668655000000     0.451883333333     0          
T        Si     0.599375000000     0.506000000000     0.755320000000     0          
T        Si     0.630390000000     0.571860000000     0.789723333333     0          
T        Si     0.687395000000     0.629185000000     0.789576666667     0          
T        Si     0.528680000000     0.528680000000     0.712470000000     0          
T        Si     0.558490000000     0.501965000000     0.833333333333     0          
O        O      0.500000000000     0.500000000000     0.727503333333     0          
O        O      0.528630000000     0.528630000000     0.666666666667     0          
O        O      0.568055000000     0.518595000000     0.727070000000     0          
O        O      0.619545000000     0.972090000000     0.737356666667     0          
O        O      0.582420000000     0.995490000000     0.795923333333     0          
O        O      0.526565000000     0.973435000000     0.833333333333     0          
O        O      0.541340000000     0.541340000000     0.833333333333     0          
O        O      0.627530000000     0.537805000000     0.761950000000     0          
O        O      0.599765000000     0.599765000000     0.777930000000     0          
O        O      0.624855000000     0.559690000000     0.833333333333     0          
O        O      0.668655000000     0.590790000000     0.785216666667     0          
O        O      0.659900000000     0.659900000000     0.776910000000     0          
O        O      0.698880000000     0.635160000000     0.833333333333     0          
T        Si     0.744000000000     0.849375000000     0.921986666667     0          
T        Si     0.678140000000     0.880390000000     0.956390000000     0          
T        Si     0.620815000000     0.937395000000     0.956243333333     0          
T        Si     0.721320000000     0.778680000000     0.879136666667     0          
T        Si     0.748035000000     0.808490000000     0.666666666667     0          
O        O      0.750000000000     0.750000000000     0.894170000000     0          
O        O      0.721370000000     0.778630000000     0.833333333333     0          
O        O      0.731405000000     0.818055000000     0.893736666667     0          
O        O      0.777910000000     0.869545000000     0.904023333333     0          
O        O      0.754510000000     0.832420000000     0.962590000000     0          
O        O      0.776565000000     0.776565000000     0.666666666667     0          
O        O      0.708660000000     0.791340000000     0.666666666667     0          
O        O      0.712195000000     0.877530000000     0.928616666667     0          
O        O      0.650235000000     0.849765000000     0.944596666667     0          
O        O      0.690310000000     0.874855000000     0.666666666667     0          
O        O      0.659210000000     0.918655000000     0.951883333333     0          
O        O      0.590100000000     0.909900000000     0.943576666667     0          
O        O      0.614840000000     0.948880000000     0.666666666667     0          
T        Si     0.900625000000     0.994000000000     0.755320000000     0          
T        Si     0.869610000000     0.928140000000     0.789723333333     0          
T        Si     0.812605000000     0.870815000000     0.789576666667     0          
T        Si     0.971320000000     0.971320000000     0.712470000000     0          
T        Si     0.941510000000     0.998035000000     0.833333333333     0          
O        O      0.971370000000     0.971370000000     0.666666666667     0          
O        O      0.931945000000     0.981405000000     0.727070000000     0          
O        O      0.880455000000     0.527910000000     0.737356666667     0          
O        O      0.917580000000     0.504510000000     0.795923333333     0          
O        O      0.973435000000     0.526565000000     0.833333333333     0          
O        O      0.958660000000     0.958660000000     0.833333333333     0          
O        O      0.872470000000     0.962195000000     0.761950000000     0          
O        O      0.900235000000     0.900235000000     0.777930000000     0          
O        O      0.875145000000     0.940310000000     0.833333333333     0          
O        O      0.831345000000     0.909210000000     0.785216666667     0          
O        O      0.840100000000     0.840100000000     0.776910000000     0          
O        O      0.801120000000     0.864840000000     0.833333333333     0          
T        Si     0.756000000000     0.650625000000     0.921986666667     0          
T        Si     0.821860000000     0.619610000000     0.956390000000     0          
T        Si     0.879185000000     0.562605000000     0.956243333333     0          
T        Si     0.778680000000     0.721320000000     0.879136666667     0          
T        Si     0.751965000000     0.691510000000     0.666666666667     0          
O        O      0.778630000000     0.721370000000     0.833333333333     0          
O        O      0.768595000000     0.681945000000     0.893736666667     0          
O        O      0.722090000000     0.630455000000     0.904023333333     0          
O        O      0.745490000000     0.667580000000     0.962590000000     0          
O        O      0.723435000000     0.723435000000     0.666666666667     0          
O        O      0.791340000000     0.708660000000     0.666666666667     0          
O        O      0.787805000000     0.622470000000     0.928616666667     0          
O        O      0.849765000000     0.650235000000     0.944596666667     0          
O        O      0.809690000000     0.625145000000     0.666666666667     0          
O        O      0.840790000000     0.581345000000     0.951883333333     0          
O        O      0.909900000000     0.590100000000     0.943576666667     0          
O        O      0.885160000000     0.551120000000     0.666666666667     0          
T        Si     0.849375000000     0.744000000000     0.744680000000     0          
T        Si     0.880390000000     0.678140000000     0.710276666667     0          
T        Si     0.937395000000     0.620815000000     0.710423333333     0          
T        Si     0.778680000000     0.721320000000     0.787530000000     0          
T        Si     0.808490000000     0.748035000000     0.666666666667     0          
O        O      0.750000000000     0.750000000000     0.772496666667     0          
O        O      0.818055000000     0.731405000000     0.772930000000     0          
O        O      0.869545000000     0.777910000000     0.762643333333     0          
O        O      0.832420000000     0.754510000000     0.704076666667     0          
O        O      0.877530000000     0.712195000000     0.738050000000     0          
O        O      0.849765000000     0.650235000000     0.722070000000     0          
O        O      0.874855000000     0.690310000000     0.666666666667     0          
O        O      0.918655000000     0.659210000000     0.714783333333     0          
O        O      0.909900000000     0.590100000000     0.723090000000     0          
O        O      0.948880000000     0.614840000000     0.666666666667     0          
T        Si     0.506000000000     0.599375000000     0.911346666667     0          
T        Si     0.571860000000     0.630390000000     0.876943333333     0          
T        Si     0.629185000000     0.687395000000     0.877090000000     0          
T        Si     0.528680000000     0.528680000000     0.954196666667     0          
T        Si     0.501965000000     0.558490000000     0.833333333333     0          
O        O      0.500000000000     0.500000000000     0.939163333333     0          
O        O      0.518595000000     0.568055000000     0.939596666667     0          
O        O      0.972090000000     0.619545000000     0.929310000000     0          
O        O      0.995490000000     0.582420000000     0.870743333333     0          
O        O      0.537805000000     0.627530000000     0.904716666667     0          
O        O      0.599765000000     0.599765000000     0.888736666667     0          
O        O      0.559690000000     0.624855000000     0.833333333333     0          
O        O      0.590790000000     0.668655000000     0.881450000000     0          
O        O      0.659900000000     0.659900000000     0.889756666667     0          
O        O      0.635160000000     0.698880000000     0.833333333333     0          
T        Si     0.650625000000     0.756000000000     0.744680000000     0          
T        Si     0.619610000000     0.821860000000     0.710276666667     0          
T        Si     0.562605000000     0.879185000000     0.710423333333     0          
T        Si     0.721320000000     0.778680000000     0.787530000000     0          
T        Si     0.691510000000     0.751965000000     0.666666666667     0          
O        O      0.681945000000     0.768595000000     0.772930000000     0          
O        O      0.630455000000     0.722090000000     0.762643333333     0          
O        O      0.667580000000     0.745490000000     0.704076666667     0          
O        O      0.622470000000     0.787805000000     0.738050000000     0          
O        O      0.650235000000     0.849765000000     0.722070000000     0          
O        O      0.625145000000     0.809690000000     0.666666666667     0          
O        O      0.581345000000     0.840790000000     0.714783333333     0          
O        O      0.590100000000     0.909900000000     0.723090000000     0          
O        O      0.551120000000     0.885160000000     0.666666666667     0          
T        Si     0.994000000000     0.900625000000     0.911346666667     0          
T        Si     0.928140000000     0.869610000000     0.876943333333     0          
T        Si     0.870815000000     0.812605000000     0.877090000000     0          
T        Si     0.971320000000     0.971320000000     0.954196666667     0          
T        Si     0.998035000000     0.941510000000     0.833333333333     0          
O        O      0.981405000000     0.931945000000     0.939596666667     0          
O        O      0.527910000000     0.880455000000     0.929310000000     0          
O        O      0.504510000000     0.917580000000     0.870743333333     0          
O        O      0.962195000000     0.872470000000     0.904716666667     0          
O        O      0.900235000000     0.900235000000     0.888736666667     0          
O        O      0.940310000000     0.875145000000     0.833333333333     0          
O        O      0.909210000000     0.831345000000     0.881450000000     0          
O        O      0.840100000000     0.840100000000     0.889756666667     0          
O        O      0.864840000000     0.801120000000     0.833333333333     0          
T        Si     0.900625000000     0.994000000000     0.911346666667     0          
T        Si     0.869610000000     0.928140000000     0.876943333333     0          
T        Si     0.812605000000     0.870815000000     0.877090000000     0          
O        O      0.931945000000     0.981405000000     0.939596666667     0          
O        O      0.880455000000     0.527910000000     0.929310000000     0          
O        O      0.917580000000     0.504510000000     0.870743333333     0          
O        O      0.872470000000     0.962195000000     0.904716666667     0          
O        O      0.831345000000     0.909210000000     0.881450000000     0          
T        Si     0.756000000000     0.650625000000     0.744680000000     0          
T        Si     0.821860000000     0.619610000000     0.710276666667     0          
T        Si     0.879185000000     0.562605000000     0.710423333333     0          
O        O      0.768595000000     0.681945000000     0.772930000000     0          
O        O      0.722090000000     0.630455000000     0.762643333333     0          
O        O      0.745490000000     0.667580000000     0.704076666667     0          
O        O      0.787805000000     0.622470000000     0.738050000000     0          
O        O      0.840790000000     0.581345000000     0.714783333333     0          
T        Si     0.599375000000     0.506000000000     0.911346666667     0          
T        Si     0.630390000000     0.571860000000     0.876943333333     0          
T        Si     0.687395000000     0.629185000000     0.877090000000     0          
O        O      0.568055000000     0.518595000000     0.939596666667     0          
O        O      0.619545000000     0.972090000000     0.929310000000     0          
O        O      0.582420000000     0.995490000000     0.870743333333     0          
O        O      0.627530000000     0.537805000000     0.904716666667     0          
O        O      0.668655000000     0.590790000000     0.881450000000     0          
T        Si     0.744000000000     0.849375000000     0.744680000000     0          
T        Si     0.678140000000     0.880390000000     0.710276666667     0          
T        Si     0.620815000000     0.937395000000     0.710423333333     0          
O        O      0.731405000000     0.818055000000     0.772930000000     0          
O        O      0.777910000000     0.869545000000     0.762643333333     0          
O        O      0.754510000000     0.832420000000     0.704076666667     0          
O        O      0.712195000000     0.877530000000     0.738050000000     0          
O        O      0.659210000000     0.918655000000     0.714783333333     0          
T        Si     0.650625000000     0.756000000000     0.921986666667     0          
T        Si     0.619610000000     0.821860000000     0.956390000000     0          
T        Si     0.562605000000     0.879185000000     0.956243333333     0          
O        O      0.681945000000     0.768595000000     0.893736666667     0          
O        O      0.630455000000     0.722090000000     0.904023333333     0          
O        O      0.667580000000     0.745490000000     0.962590000000     0          
O        O      0.622470000000     0.787805000000     0.928616666667     0          
O        O      0.581345000000     0.840790000000     0.951883333333     0          
T        Si     0.994000000000     0.900625000000     0.755320000000     0          
T        Si     0.928140000000     0.869610000000     0.789723333333     0          
T        Si     0.870815000000     0.812605000000     0.789576666667     0          
O        O      0.981405000000     0.931945000000     0.727070000000     0          
O        O      0.527910000000     0.880455000000     0.737356666667     0          
O        O      0.504510000000     0.917580000000     0.795923333333     0          
O        O      0.962195000000     0.872470000000     0.761950000000     0          
O        O      0.909210000000     0.831345000000     0.785216666667     0          
T        Si     0.849375000000     0.744000000000     0.921986666667     0          
T        Si     0.880390000000     0.678140000000     0.956390000000     0          
T        Si     0.937395000000     0.620815000000     0.956243333333     0          
O        O      0.818055000000     0.731405000000     0.893736666667     0          
O        O      0.869545000000     0.777910000000     0.904023333333     0          
O        O      0.832420000000     0.754510000000     0.962590000000     0          
O        O      0.877530000000     0.712195000000     0.928616666667     0          
O        O      0.918655000000     0.659210000000     0.951883333333     0          
T        Si     0.506000000000     0.599375000000     0.755320000000     0          
T        Si     0.571860000000     0.630390000000     0.789723333333     0          
T        Si     0.629185000000     0.687395000000     0.789576666667     0          
O        O      0.518595000000     0.568055000000     0.727070000000     0          
O        O      0.972090000000     0.619545000000     0.737356666667     0          
O        O      0.995490000000     0.582420000000     0.795923333333     0          
O        O      0.537805000000     0.627530000000     0.761950000000     0          
O        O      0.590790000000     0.668655000000     0.785216666667     0          


